           2

 O   3.20031238       0.00000000       0.00000000       0.00000000    
 C   0.00000000       0.00000000       0.00000000       0.00000000    
           2

 O   4.06886101       0.00000000       0.00000000       0.00000000    
 C   0.00000000       0.00000000       0.00000000       0.00000000    
           2

 O   4.92076302       0.00000000       0.00000000       0.00000000    
 C   0.00000000       0.00000000       0.00000000       0.00000000    
           2

 O   5.76542425       0.00000000       0.00000000       0.00000000    
 C   0.00000000       0.00000000       0.00000000       0.00000000    
           2

 O   6.60709524       0.00000000       0.00000000       0.00000000    
 C   0.00000000       0.00000000       0.00000000       0.00000000    
           2

 O   7.44755363       0.00000000       0.00000000       0.00000000    
 C   0.00000000       0.00000000       0.00000000       0.00000000    
           2

 O   8.28752327       0.00000000       0.00000000       0.00000000    
 C   0.00000000       0.00000000       0.00000000       0.00000000    
           2

 O   9.12729645       0.00000000       0.00000000       0.00000000    
 C   0.00000000       0.00000000       0.00000000       0.00000000    
           2

 O   9.96699142       0.00000000       0.00000000       0.00000000    
 C   0.00000000       0.00000000       0.00000000       0.00000000    
           2

 O   10.8066549       0.00000000       0.00000000       0.00000000    
 C   0.00000000       0.00000000       0.00000000       0.00000000    
           2

 O   11.6463051       0.00000000       0.00000000       0.00000000    
 C   0.00000000       0.00000000       0.00000000       0.00000000    
           2

 O   12.4859505       0.00000000       0.00000000       0.00000000    
 C   0.00000000       0.00000000       0.00000000       0.00000000    
           2

 O   13.3255939       0.00000000       0.00000000       0.00000000    
 C   0.00000000       0.00000000       0.00000000       0.00000000    
           2

 O   14.1652365       0.00000000       0.00000000       0.00000000    
 C   0.00000000       0.00000000       0.00000000       0.00000000    
           2

 O   15.0048790       0.00000000       0.00000000       0.00000000    
 C   0.00000000       0.00000000       0.00000000       0.00000000    
           2

 O   15.8445215       0.00000000       0.00000000       0.00000000    
 C   0.00000000       0.00000000       0.00000000       0.00000000    
           2

 O   16.6841640       0.00000000       0.00000000       0.00000000    
 C   0.00000000       0.00000000       0.00000000       0.00000000    
           2

 O   17.5238056       0.00000000       0.00000000       0.00000000    
 C   0.00000000       0.00000000       0.00000000       0.00000000    
           2

 O   18.3634472       0.00000000       0.00000000       0.00000000    
 C   0.00000000       0.00000000       0.00000000       0.00000000    
           2

 O   19.2030888       0.00000000       0.00000000       0.00000000    
 C   0.00000000       0.00000000       0.00000000       0.00000000    
           2

 O   20.0427303       0.00000000       0.00000000       0.00000000    
 C   0.00000000       0.00000000       0.00000000       0.00000000    
           2

 O   20.8823719       0.00000000       0.00000000       0.00000000    
 C   0.00000000       0.00000000       0.00000000       0.00000000    
           2

 O   21.7220135       0.00000000       0.00000000       0.00000000    
 C   0.00000000       0.00000000       0.00000000       0.00000000    
           2

 O   22.5616550       0.00000000       0.00000000       0.00000000    
 C   0.00000000       0.00000000       0.00000000       0.00000000    
           2

 O   23.4012966       0.00000000       0.00000000       0.00000000    
 C   0.00000000       0.00000000       0.00000000       0.00000000    
           2

 O   24.2409382       0.00000000       0.00000000       0.00000000    
 C   0.00000000       0.00000000       0.00000000       0.00000000    
           2

 O   25.0805798       0.00000000       0.00000000       0.00000000    
 C   0.00000000       0.00000000       0.00000000       0.00000000    
           2

 O   25.9202213       0.00000000       0.00000000       0.00000000    
 C   0.00000000       0.00000000       0.00000000       0.00000000    
           2

 O   26.7598629       0.00000000       0.00000000       0.00000000    
 C   0.00000000       0.00000000       0.00000000       0.00000000    
           2

 O   27.5995045       0.00000000       0.00000000       0.00000000    
 C   0.00000000       0.00000000       0.00000000       0.00000000    
           2

 O   28.4391460       0.00000000       0.00000000       0.00000000    
 C   0.00000000       0.00000000       0.00000000       0.00000000    
           2

 O   29.2787876       0.00000000       0.00000000       0.00000000    
 C   0.00000000       0.00000000       0.00000000       0.00000000    
           2

 O   30.1184292       0.00000000       0.00000000       0.00000000    
 C   0.00000000       0.00000000       0.00000000       0.00000000    
           2

 O   30.9580708       0.00000000       0.00000000       0.00000000    
 C   0.00000000       0.00000000       0.00000000       0.00000000    
           2

 O   31.7977123       0.00000000       0.00000000       0.00000000    
 C   0.00000000       0.00000000       0.00000000       0.00000000    
           2

 O   32.6373558       0.00000000       0.00000000       0.00000000    
 C   0.00000000       0.00000000       0.00000000       0.00000000    
           2

 O   33.4769974       0.00000000       0.00000000       0.00000000    
 C   0.00000000       0.00000000       0.00000000       0.00000000    
           2

 O   34.3166389       0.00000000       0.00000000       0.00000000    
 C   0.00000000       0.00000000       0.00000000       0.00000000    
           2

 O   35.1562805       0.00000000       0.00000000       0.00000000    
 C   0.00000000       0.00000000       0.00000000       0.00000000    
           2

 O   35.9959221       0.00000000       0.00000000       0.00000000    
 C   0.00000000       0.00000000       0.00000000       0.00000000    
           2

 O   36.8355637       0.00000000       0.00000000       0.00000000    
 C   0.00000000       0.00000000       0.00000000       0.00000000    
           2

 O   37.6752052       0.00000000       0.00000000       0.00000000    
 C   0.00000000       0.00000000       0.00000000       0.00000000    
           2

 O   38.5148468       0.00000000       0.00000000       0.00000000    
 C   0.00000000       0.00000000       0.00000000       0.00000000    
           2

 O   39.3544884       0.00000000       0.00000000       0.00000000    
 C   0.00000000       0.00000000       0.00000000       0.00000000    
           2

 O   40.1941299       0.00000000       0.00000000       0.00000000    
 C   0.00000000       0.00000000       0.00000000       0.00000000    
           2

 O   41.0337715       0.00000000       0.00000000       0.00000000    
 C   0.00000000       0.00000000       0.00000000       0.00000000    
           2

 O   41.8734131       0.00000000       0.00000000       0.00000000    
 C   0.00000000       0.00000000       0.00000000       0.00000000    
           2

 O   42.7130547       0.00000000       0.00000000       0.00000000    
 C   0.00000000       0.00000000       0.00000000       0.00000000    
           2

 O   43.5526962       0.00000000       0.00000000       0.00000000    
 C   0.00000000       0.00000000       0.00000000       0.00000000    
           2

 O   44.3923378       0.00000000       0.00000000       0.00000000    
 C   0.00000000       0.00000000       0.00000000       0.00000000    
           2

 O   45.2319794       0.00000000       0.00000000       0.00000000    
 C   0.00000000       0.00000000       0.00000000       0.00000000    
           2

 O   46.0716209       0.00000000       0.00000000       0.00000000    
 C   0.00000000       0.00000000       0.00000000       0.00000000    
           2

 O   46.9112625       0.00000000       0.00000000       0.00000000    
 C   0.00000000       0.00000000       0.00000000       0.00000000    
           2

 O   47.7509041       0.00000000       0.00000000       0.00000000    
 C   0.00000000       0.00000000       0.00000000       0.00000000    
           2

 O   48.5905457       0.00000000       0.00000000       0.00000000    
 C   0.00000000       0.00000000       0.00000000       0.00000000    
           2

 O   49.4301872       0.00000000       0.00000000       0.00000000    
 C   0.00000000       0.00000000       0.00000000       0.00000000    
           2

 O   50.2698288       0.00000000       0.00000000       0.00000000    
 C   0.00000000       0.00000000       0.00000000       0.00000000    
           2

 O   51.1094704       0.00000000       0.00000000       0.00000000    
 C   0.00000000       0.00000000       0.00000000       0.00000000    
           2

 O   51.9491119       0.00000000       0.00000000       0.00000000    
 C   0.00000000       0.00000000       0.00000000       0.00000000    
           2

 O   52.7887535       0.00000000       0.00000000       0.00000000    
 C   0.00000000       0.00000000       0.00000000       0.00000000    
           2

 O   53.6283951       0.00000000       0.00000000       0.00000000    
 C   0.00000000       0.00000000       0.00000000       0.00000000    
           2

 O   54.4680367       0.00000000       0.00000000       0.00000000    
 C   0.00000000       0.00000000       0.00000000       0.00000000    
           2

 O   55.3076782       0.00000000       0.00000000       0.00000000    
 C   0.00000000       0.00000000       0.00000000       0.00000000    
           2

 O   56.1473198       0.00000000       0.00000000       0.00000000    
 C   0.00000000       0.00000000       0.00000000       0.00000000    
           2

 O   56.9869614       0.00000000       0.00000000       0.00000000    
 C   0.00000000       0.00000000       0.00000000       0.00000000    
           2

 O   57.8266029       0.00000000       0.00000000       0.00000000    
 C   0.00000000       0.00000000       0.00000000       0.00000000    
           2

 O   58.6662445       0.00000000       0.00000000       0.00000000    
 C   0.00000000       0.00000000       0.00000000       0.00000000    
           2

 O   59.5058861       0.00000000       0.00000000       0.00000000    
 C   0.00000000       0.00000000       0.00000000       0.00000000    
           2

 O   60.3455276       0.00000000       0.00000000       0.00000000    
 C   0.00000000       0.00000000       0.00000000       0.00000000    
           2

 O   61.1851692       0.00000000       0.00000000       0.00000000    
 C   0.00000000       0.00000000       0.00000000       0.00000000    
           2

 O   62.0248108       0.00000000       0.00000000       0.00000000    
 C   0.00000000       0.00000000       0.00000000       0.00000000    
           2

 O   62.8644524       0.00000000       0.00000000       0.00000000    
 C   0.00000000       0.00000000       0.00000000       0.00000000    
           2

 O   63.7040939       0.00000000       0.00000000       0.00000000    
 C   0.00000000       0.00000000       0.00000000       0.00000000    
           2

 O   64.5437393       0.00000000       0.00000000       0.00000000    
 C   0.00000000       0.00000000       0.00000000       0.00000000    
           2

 O   65.3833847       0.00000000       0.00000000       0.00000000    
 C   0.00000000       0.00000000       0.00000000       0.00000000    
           2

 O   66.2230301       0.00000000       0.00000000       0.00000000    
 C   0.00000000       0.00000000       0.00000000       0.00000000    
           2

 O   67.0626755       0.00000000       0.00000000       0.00000000    
 C   0.00000000       0.00000000       0.00000000       0.00000000    
           2

 O   67.9023209       0.00000000       0.00000000       0.00000000    
 C   0.00000000       0.00000000       0.00000000       0.00000000    
           2

 O   68.7419662       0.00000000       0.00000000       0.00000000    
 C   0.00000000       0.00000000       0.00000000       0.00000000    
           2

 O   69.5816116       0.00000000       0.00000000       0.00000000    
 C   0.00000000       0.00000000       0.00000000       0.00000000    
           2

 O   70.4212570       0.00000000       0.00000000       0.00000000    
 C   0.00000000       0.00000000       0.00000000       0.00000000    
           2

 O   71.2609024       0.00000000       0.00000000       0.00000000    
 C   0.00000000       0.00000000       0.00000000       0.00000000    
           2

 O   72.1005478       0.00000000       0.00000000       0.00000000    
 C   0.00000000       0.00000000       0.00000000       0.00000000    
           2

 O   72.9401932       0.00000000       0.00000000       0.00000000    
 C   0.00000000       0.00000000       0.00000000       0.00000000    
           2

 O   73.7798386       0.00000000       0.00000000       0.00000000    
 C   0.00000000       0.00000000       0.00000000       0.00000000    
           2

 O   74.6194839       0.00000000       0.00000000       0.00000000    
 C   0.00000000       0.00000000       0.00000000       0.00000000    
           2

 O   75.4591293       0.00000000       0.00000000       0.00000000    
 C   0.00000000       0.00000000       0.00000000       0.00000000    
           2

 O   76.2987747       0.00000000       0.00000000       0.00000000    
 C   0.00000000       0.00000000       0.00000000       0.00000000    
           2

 O   77.1384201       0.00000000       0.00000000       0.00000000    
 C   0.00000000       0.00000000       0.00000000       0.00000000    
           2

 O   77.9780655       0.00000000       0.00000000       0.00000000    
 C   0.00000000       0.00000000       0.00000000       0.00000000    
           2

 O   78.8177109       0.00000000       0.00000000       0.00000000    
 C   0.00000000       0.00000000       0.00000000       0.00000000    
           2

 O   79.6573563       0.00000000       0.00000000       0.00000000    
 C   0.00000000       0.00000000       0.00000000       0.00000000    
           2

 O   80.4970016       0.00000000       0.00000000       0.00000000    
 C   0.00000000       0.00000000       0.00000000       0.00000000    
           2

 O   81.3366470       0.00000000       0.00000000       0.00000000    
 C   0.00000000       0.00000000       0.00000000       0.00000000    
           2

 O   82.1762924       0.00000000       0.00000000       0.00000000    
 C   0.00000000       0.00000000       0.00000000       0.00000000    
           2

 O   83.0159378       0.00000000       0.00000000       0.00000000    
 C   0.00000000       0.00000000       0.00000000       0.00000000    
           2

 O   83.8555832       0.00000000       0.00000000       0.00000000    
 C   0.00000000       0.00000000       0.00000000       0.00000000    
           2

 O   84.6952286       0.00000000       0.00000000       0.00000000    
 C   0.00000000       0.00000000       0.00000000       0.00000000    
           2

 O   85.5348740       0.00000000       0.00000000       0.00000000    
 C   0.00000000       0.00000000       0.00000000       0.00000000    
           2

 O   86.3745193       0.00000000       0.00000000       0.00000000    
 C   0.00000000       0.00000000       0.00000000       0.00000000    
           2

 O   87.2141647       0.00000000       0.00000000       0.00000000    
 C   0.00000000       0.00000000       0.00000000       0.00000000    
           2

 O   88.0538101       0.00000000       0.00000000       0.00000000    
 C   0.00000000       0.00000000       0.00000000       0.00000000    
           2

 O   88.8934555       0.00000000       0.00000000       0.00000000    
 C   0.00000000       0.00000000       0.00000000       0.00000000    
           2

 O   89.7331009       0.00000000       0.00000000       0.00000000    
 C   0.00000000       0.00000000       0.00000000       0.00000000    
           2

 O   90.5727463       0.00000000       0.00000000       0.00000000    
 C   0.00000000       0.00000000       0.00000000       0.00000000    
           2

 O   91.4123917       0.00000000       0.00000000       0.00000000    
 C   0.00000000       0.00000000       0.00000000       0.00000000    
           2

 O   92.2520370       0.00000000       0.00000000       0.00000000    
 C   0.00000000       0.00000000       0.00000000       0.00000000    
           2

 O   93.0916824       0.00000000       0.00000000       0.00000000    
 C   0.00000000       0.00000000       0.00000000       0.00000000    
           2

 O   93.9313278       0.00000000       0.00000000       0.00000000    
 C   0.00000000       0.00000000       0.00000000       0.00000000    
           2

 O   94.7709732       0.00000000       0.00000000       0.00000000    
 C   0.00000000       0.00000000       0.00000000       0.00000000    
           2

 O   95.6106186       0.00000000       0.00000000       0.00000000    
 C   0.00000000       0.00000000       0.00000000       0.00000000    
           2

 O   96.4502640       0.00000000       0.00000000       0.00000000    
 C   0.00000000       0.00000000       0.00000000       0.00000000    
           2

 O   97.2899094       0.00000000       0.00000000       0.00000000    
 C   0.00000000       0.00000000       0.00000000       0.00000000    
           2

 O   98.1295547       0.00000000       0.00000000       0.00000000    
 C   0.00000000       0.00000000       0.00000000       0.00000000    
           2

 O   98.9692001       0.00000000       0.00000000       0.00000000    
 C   0.00000000       0.00000000       0.00000000       0.00000000    
           2

 O   99.8088455       0.00000000       0.00000000       0.00000000    
 C   0.00000000       0.00000000       0.00000000       0.00000000    
           2

 O   100.648491       0.00000000       0.00000000       0.00000000    
 C   0.00000000       0.00000000       0.00000000       0.00000000    
           2

 O   101.488136       0.00000000       0.00000000       0.00000000    
 C   0.00000000       0.00000000       0.00000000       0.00000000    
           2

 O   102.327782       0.00000000       0.00000000       0.00000000    
 C   0.00000000       0.00000000       0.00000000       0.00000000    
           2

 O   103.167427       0.00000000       0.00000000       0.00000000    
 C   0.00000000       0.00000000       0.00000000       0.00000000    
           2

 O   104.007072       0.00000000       0.00000000       0.00000000    
 C   0.00000000       0.00000000       0.00000000       0.00000000    
           2

 O   104.846718       0.00000000       0.00000000       0.00000000    
 C   0.00000000       0.00000000       0.00000000       0.00000000    
           2

 O   105.686363       0.00000000       0.00000000       0.00000000    
 C   0.00000000       0.00000000       0.00000000       0.00000000    
           2

 O   106.526009       0.00000000       0.00000000       0.00000000    
 C   0.00000000       0.00000000       0.00000000       0.00000000    
           2

 O   107.365654       0.00000000       0.00000000       0.00000000    
 C   0.00000000       0.00000000       0.00000000       0.00000000    
           2

 O   108.205299       0.00000000       0.00000000       0.00000000    
 C   0.00000000       0.00000000       0.00000000       0.00000000    
           2

 O   109.044945       0.00000000       0.00000000       0.00000000    
 C   0.00000000       0.00000000       0.00000000       0.00000000    
           2

 O   109.884590       0.00000000       0.00000000       0.00000000    
 C   0.00000000       0.00000000       0.00000000       0.00000000    
           2

 O   110.724236       0.00000000       0.00000000       0.00000000    
 C   0.00000000       0.00000000       0.00000000       0.00000000    
           2

 O   111.563881       0.00000000       0.00000000       0.00000000    
 C   0.00000000       0.00000000       0.00000000       0.00000000    
           2

 O   112.403526       0.00000000       0.00000000       0.00000000    
 C   0.00000000       0.00000000       0.00000000       0.00000000    
           2

 O   113.243172       0.00000000       0.00000000       0.00000000    
 C   0.00000000       0.00000000       0.00000000       0.00000000    
           2

 O   114.082817       0.00000000       0.00000000       0.00000000    
 C   0.00000000       0.00000000       0.00000000       0.00000000    
           2

 O   114.922462       0.00000000       0.00000000       0.00000000    
 C   0.00000000       0.00000000       0.00000000       0.00000000    
           2

 O   115.762108       0.00000000       0.00000000       0.00000000    
 C   0.00000000       0.00000000       0.00000000       0.00000000    
           2

 O   116.601753       0.00000000       0.00000000       0.00000000    
 C   0.00000000       0.00000000       0.00000000       0.00000000    
           2

 O   117.441399       0.00000000       0.00000000       0.00000000    
 C   0.00000000       0.00000000       0.00000000       0.00000000    
           2

 O   118.281044       0.00000000       0.00000000       0.00000000    
 C   0.00000000       0.00000000       0.00000000       0.00000000    
           2

 O   119.120689       0.00000000       0.00000000       0.00000000    
 C   0.00000000       0.00000000       0.00000000       0.00000000    
           2

 O   119.960335       0.00000000       0.00000000       0.00000000    
 C   0.00000000       0.00000000       0.00000000       0.00000000    
           2

 O   120.799980       0.00000000       0.00000000       0.00000000    
 C   0.00000000       0.00000000       0.00000000       0.00000000    
           2

 O   121.639626       0.00000000       0.00000000       0.00000000    
 C   0.00000000       0.00000000       0.00000000       0.00000000    
           2

 O   122.479271       0.00000000       0.00000000       0.00000000    
 C   0.00000000       0.00000000       0.00000000       0.00000000    
           2

 O   123.318916       0.00000000       0.00000000       0.00000000    
 C   0.00000000       0.00000000       0.00000000       0.00000000    
           2

 O   124.158562       0.00000000       0.00000000       0.00000000    
 C   0.00000000       0.00000000       0.00000000       0.00000000    
           2

 O   124.998207       0.00000000       0.00000000       0.00000000    
 C   0.00000000       0.00000000       0.00000000       0.00000000    
           2

 O   125.837852       0.00000000       0.00000000       0.00000000    
 C   0.00000000       0.00000000       0.00000000       0.00000000    
           2

 O   126.677498       0.00000000       0.00000000       0.00000000    
 C   0.00000000       0.00000000       0.00000000       0.00000000    
           2

 O   127.517143       0.00000000       0.00000000       0.00000000    
 C   0.00000000       0.00000000       0.00000000       0.00000000    
           2

 O   128.356781       0.00000000       0.00000000       0.00000000    
 C   0.00000000       0.00000000       0.00000000       0.00000000    
           2

 O   129.196426       0.00000000       0.00000000       0.00000000    
 C   0.00000000       0.00000000       0.00000000       0.00000000    
           2

 O   130.036072       0.00000000       0.00000000       0.00000000    
 C   0.00000000       0.00000000       0.00000000       0.00000000    
           2

 O   130.875717       0.00000000       0.00000000       0.00000000    
 C   0.00000000       0.00000000       0.00000000       0.00000000    
           2

 O   131.715363       0.00000000       0.00000000       0.00000000    
 C   0.00000000       0.00000000       0.00000000       0.00000000    
           2

 O   132.555008       0.00000000       0.00000000       0.00000000    
 C   0.00000000       0.00000000       0.00000000       0.00000000    
           2

 O   133.394653       0.00000000       0.00000000       0.00000000    
 C   0.00000000       0.00000000       0.00000000       0.00000000    
           2

 O   134.234299       0.00000000       0.00000000       0.00000000    
 C   0.00000000       0.00000000       0.00000000       0.00000000    
           2

 O   135.073944       0.00000000       0.00000000       0.00000000    
 C   0.00000000       0.00000000       0.00000000       0.00000000    
           2

 O   135.913589       0.00000000       0.00000000       0.00000000    
 C   0.00000000       0.00000000       0.00000000       0.00000000    
           2

 O   136.753235       0.00000000       0.00000000       0.00000000    
 C   0.00000000       0.00000000       0.00000000       0.00000000    
           2

 O   137.592880       0.00000000       0.00000000       0.00000000    
 C   0.00000000       0.00000000       0.00000000       0.00000000    
           2

 O   138.432526       0.00000000       0.00000000       0.00000000    
 C   0.00000000       0.00000000       0.00000000       0.00000000    
           2

 O   139.272171       0.00000000       0.00000000       0.00000000    
 C   0.00000000       0.00000000       0.00000000       0.00000000    
           2

 O   140.111816       0.00000000       0.00000000       0.00000000    
 C   0.00000000       0.00000000       0.00000000       0.00000000    
           2

 O   140.951462       0.00000000       0.00000000       0.00000000    
 C   0.00000000       0.00000000       0.00000000       0.00000000    
           2

 O   141.791107       0.00000000       0.00000000       0.00000000    
 C   0.00000000       0.00000000       0.00000000       0.00000000    
           2

 O   142.630753       0.00000000       0.00000000       0.00000000    
 C   0.00000000       0.00000000       0.00000000       0.00000000    
           2

 O   143.470398       0.00000000       0.00000000       0.00000000    
 C   0.00000000       0.00000000       0.00000000       0.00000000    
           2

 O   144.310043       0.00000000       0.00000000       0.00000000    
 C   0.00000000       0.00000000       0.00000000       0.00000000    
           2

 O   145.149689       0.00000000       0.00000000       0.00000000    
 C   0.00000000       0.00000000       0.00000000       0.00000000    
           2

 O   145.989334       0.00000000       0.00000000       0.00000000    
 C   0.00000000       0.00000000       0.00000000       0.00000000    
           2

 O   146.828979       0.00000000       0.00000000       0.00000000    
 C   0.00000000       0.00000000       0.00000000       0.00000000    
           2

 O   147.668625       0.00000000       0.00000000       0.00000000    
 C   0.00000000       0.00000000       0.00000000       0.00000000    
           2

 O   148.508270       0.00000000       0.00000000       0.00000000    
 C   0.00000000       0.00000000       0.00000000       0.00000000    
           2

 O   149.347916       0.00000000       0.00000000       0.00000000    
 C   0.00000000       0.00000000       0.00000000       0.00000000    
           2

 O   150.187561       0.00000000       0.00000000       0.00000000    
 C   0.00000000       0.00000000       0.00000000       0.00000000    
           2

 O   151.027206       0.00000000       0.00000000       0.00000000    
 C   0.00000000       0.00000000       0.00000000       0.00000000    
           2

 O   151.866852       0.00000000       0.00000000       0.00000000    
 C   0.00000000       0.00000000       0.00000000       0.00000000    
           2

 O   152.706497       0.00000000       0.00000000       0.00000000    
 C   0.00000000       0.00000000       0.00000000       0.00000000    
           2

 O   153.546143       0.00000000       0.00000000       0.00000000    
 C   0.00000000       0.00000000       0.00000000       0.00000000    
           2

 O   154.385788       0.00000000       0.00000000       0.00000000    
 C   0.00000000       0.00000000       0.00000000       0.00000000    
           2

 O   155.225433       0.00000000       0.00000000       0.00000000    
 C   0.00000000       0.00000000       0.00000000       0.00000000    
           2

 O   156.065079       0.00000000       0.00000000       0.00000000    
 C   0.00000000       0.00000000       0.00000000       0.00000000    
           2

 O   156.904724       0.00000000       0.00000000       0.00000000    
 C   0.00000000       0.00000000       0.00000000       0.00000000    
           2

 O   157.744370       0.00000000       0.00000000       0.00000000    
 C   0.00000000       0.00000000       0.00000000       0.00000000    
           2

 O   158.584015       0.00000000       0.00000000       0.00000000    
 C   0.00000000       0.00000000       0.00000000       0.00000000    
           2

 O   159.423660       0.00000000       0.00000000       0.00000000    
 C   0.00000000       0.00000000       0.00000000       0.00000000    
           2

 O   160.263306       0.00000000       0.00000000       0.00000000    
 C   0.00000000       0.00000000       0.00000000       0.00000000    
           2

 O   161.102951       0.00000000       0.00000000       0.00000000    
 C   0.00000000       0.00000000       0.00000000       0.00000000    
           2

 O   161.942596       0.00000000       0.00000000       0.00000000    
 C   0.00000000       0.00000000       0.00000000       0.00000000    
           2

 O   162.782242       0.00000000       0.00000000       0.00000000    
 C   0.00000000       0.00000000       0.00000000       0.00000000    
           2

 O   163.621887       0.00000000       0.00000000       0.00000000    
 C   0.00000000       0.00000000       0.00000000       0.00000000    
           2

 O   164.461533       0.00000000       0.00000000       0.00000000    
 C   0.00000000       0.00000000       0.00000000       0.00000000    
           2

 O   165.301178       0.00000000       0.00000000       0.00000000    
 C   0.00000000       0.00000000       0.00000000       0.00000000    
           2

 O   166.140823       0.00000000       0.00000000       0.00000000    
 C   0.00000000       0.00000000       0.00000000       0.00000000    
           2

 O   166.980469       0.00000000       0.00000000       0.00000000    
 C   0.00000000       0.00000000       0.00000000       0.00000000    
           2

 O   167.820114       0.00000000       0.00000000       0.00000000    
 C   0.00000000       0.00000000       0.00000000       0.00000000    
           2

 O   168.659760       0.00000000       0.00000000       0.00000000    
 C   0.00000000       0.00000000       0.00000000       0.00000000    
           2

 O   169.499405       0.00000000       0.00000000       0.00000000    
 C   0.00000000       0.00000000       0.00000000       0.00000000    
           2

 O   170.339050       0.00000000       0.00000000       0.00000000    
 C   0.00000000       0.00000000       0.00000000       0.00000000    
           2

 O   171.178696       0.00000000       0.00000000       0.00000000    
 C   0.00000000       0.00000000       0.00000000       0.00000000    
           2

 O   172.018341       0.00000000       0.00000000       0.00000000    
 C   0.00000000       0.00000000       0.00000000       0.00000000    
           2

 O   172.857986       0.00000000       0.00000000       0.00000000    
 C   0.00000000       0.00000000       0.00000000       0.00000000    
           2

 O   173.697632       0.00000000       0.00000000       0.00000000    
 C   0.00000000       0.00000000       0.00000000       0.00000000    
           2

 O   174.537277       0.00000000       0.00000000       0.00000000    
 C   0.00000000       0.00000000       0.00000000       0.00000000    
           2

 O   175.376923       0.00000000       0.00000000       0.00000000    
 C   0.00000000       0.00000000       0.00000000       0.00000000    
           2

 O   176.216568       0.00000000       0.00000000       0.00000000    
 C   0.00000000       0.00000000       0.00000000       0.00000000    
           2

 O   177.056213       0.00000000       0.00000000       0.00000000    
 C   0.00000000       0.00000000       0.00000000       0.00000000    
           2

 O   177.895859       0.00000000       0.00000000       0.00000000    
 C   0.00000000       0.00000000       0.00000000       0.00000000    
           2

 O   178.735504       0.00000000       0.00000000       0.00000000    
 C   0.00000000       0.00000000       0.00000000       0.00000000    
           2

 O   179.575150       0.00000000       0.00000000       0.00000000    
 C   0.00000000       0.00000000       0.00000000       0.00000000    
           2

 O   180.414795       0.00000000       0.00000000       0.00000000    
 C   0.00000000       0.00000000       0.00000000       0.00000000    
           2

 O   181.254440       0.00000000       0.00000000       0.00000000    
 C   0.00000000       0.00000000       0.00000000       0.00000000    
           2

 O   182.094086       0.00000000       0.00000000       0.00000000    
 C   0.00000000       0.00000000       0.00000000       0.00000000    
           2

 O   182.933731       0.00000000       0.00000000       0.00000000    
 C   0.00000000       0.00000000       0.00000000       0.00000000    
           2

 O   183.773376       0.00000000       0.00000000       0.00000000    
 C   0.00000000       0.00000000       0.00000000       0.00000000    
           2

 O   184.613022       0.00000000       0.00000000       0.00000000    
 C   0.00000000       0.00000000       0.00000000       0.00000000    
           2

 O   185.452667       0.00000000       0.00000000       0.00000000    
 C   0.00000000       0.00000000       0.00000000       0.00000000    
           2

 O   186.292313       0.00000000       0.00000000       0.00000000    
 C   0.00000000       0.00000000       0.00000000       0.00000000    
           2

 O   187.131958       0.00000000       0.00000000       0.00000000    
 C   0.00000000       0.00000000       0.00000000       0.00000000    
           2

 O   187.971603       0.00000000       0.00000000       0.00000000    
 C   0.00000000       0.00000000       0.00000000       0.00000000    
           2

 O   188.811249       0.00000000       0.00000000       0.00000000    
 C   0.00000000       0.00000000       0.00000000       0.00000000    
           2

 O   189.650894       0.00000000       0.00000000       0.00000000    
 C   0.00000000       0.00000000       0.00000000       0.00000000    
           2

 O   190.490540       0.00000000       0.00000000       0.00000000    
 C   0.00000000       0.00000000       0.00000000       0.00000000    
           2

 O   191.330185       0.00000000       0.00000000       0.00000000    
 C   0.00000000       0.00000000       0.00000000       0.00000000    
           2

 O   192.169830       0.00000000       0.00000000       0.00000000    
 C   0.00000000       0.00000000       0.00000000       0.00000000    
           2

 O   193.009476       0.00000000       0.00000000       0.00000000    
 C   0.00000000       0.00000000       0.00000000       0.00000000    
           2

 O   193.849121       0.00000000       0.00000000       0.00000000    
 C   0.00000000       0.00000000       0.00000000       0.00000000    
           2

 O   194.688766       0.00000000       0.00000000       0.00000000    
 C   0.00000000       0.00000000       0.00000000       0.00000000    
           2

 O   195.528412       0.00000000       0.00000000       0.00000000    
 C   0.00000000       0.00000000       0.00000000       0.00000000    
           2

 O   196.368057       0.00000000       0.00000000       0.00000000    
 C   0.00000000       0.00000000       0.00000000       0.00000000    
           2

 O   197.207703       0.00000000       0.00000000       0.00000000    
 C   0.00000000       0.00000000       0.00000000       0.00000000    
           2

 O   198.047348       0.00000000       0.00000000       0.00000000    
 C   0.00000000       0.00000000       0.00000000       0.00000000    
           2

 O   198.886993       0.00000000       0.00000000       0.00000000    
 C   0.00000000       0.00000000       0.00000000       0.00000000    
           2

 O   199.726639       0.00000000       0.00000000       0.00000000    
 C   0.00000000       0.00000000       0.00000000       0.00000000    
           2

 O   200.566284       0.00000000       0.00000000       0.00000000    
 C   0.00000000       0.00000000       0.00000000       0.00000000    
           2

 O   201.405930       0.00000000       0.00000000       0.00000000    
 C   0.00000000       0.00000000       0.00000000       0.00000000    
           2

 O   202.245575       0.00000000       0.00000000       0.00000000    
 C   0.00000000       0.00000000       0.00000000       0.00000000    
           2

 O   203.085220       0.00000000       0.00000000       0.00000000    
 C   0.00000000       0.00000000       0.00000000       0.00000000    
           2

 O   203.924866       0.00000000       0.00000000       0.00000000    
 C   0.00000000       0.00000000       0.00000000       0.00000000    
           2

 O   204.764511       0.00000000       0.00000000       0.00000000    
 C   0.00000000       0.00000000       0.00000000       0.00000000    
           2

 O   205.604156       0.00000000       0.00000000       0.00000000    
 C   0.00000000       0.00000000       0.00000000       0.00000000    
           2

 O   206.443802       0.00000000       0.00000000       0.00000000    
 C   0.00000000       0.00000000       0.00000000       0.00000000    
           2

 O   207.283447       0.00000000       0.00000000       0.00000000    
 C   0.00000000       0.00000000       0.00000000       0.00000000    
           2

 O   208.123093       0.00000000       0.00000000       0.00000000    
 C   0.00000000       0.00000000       0.00000000       0.00000000    
           2

 O   208.962738       0.00000000       0.00000000       0.00000000    
 C   0.00000000       0.00000000       0.00000000       0.00000000    
           2

 O   209.802383       0.00000000       0.00000000       0.00000000    
 C   0.00000000       0.00000000       0.00000000       0.00000000    
           2

 O   210.642029       0.00000000       0.00000000       0.00000000    
 C   0.00000000       0.00000000       0.00000000       0.00000000    
           2

 O   211.481674       0.00000000       0.00000000       0.00000000    
 C   0.00000000       0.00000000       0.00000000       0.00000000    
           2

 O   212.321320       0.00000000       0.00000000       0.00000000    
 C   0.00000000       0.00000000       0.00000000       0.00000000    
