           2

 O   2.89370728       0.00000000       0.00000000       0.00000000    
 C   0.00000000       0.00000000       0.00000000       0.00000000    
           2

 O   2.57286501       0.00000000       0.00000000       0.00000000    
 C   0.00000000       0.00000000       0.00000000       0.00000000    
           2

 O   2.07857728       0.00000000       0.00000000       0.00000000    
 C   0.00000000       0.00000000       0.00000000       0.00000000    
           2

 O   1.82861018       0.00000000       0.00000000       0.00000000    
 C   0.00000000       0.00000000       0.00000000       0.00000000    
           2

 O   2.43333673       0.00000000       0.00000000       0.00000000    
 C   0.00000000       0.00000000       0.00000000       0.00000000    
           2

 O   2.92086411       0.00000000       0.00000000       0.00000000    
 C   0.00000000       0.00000000       0.00000000       0.00000000    
           2

 O   3.19385052       0.00000000       0.00000000       0.00000000    
 C   0.00000000       0.00000000       0.00000000       0.00000000    
           2

 O   3.26771617       0.00000000       0.00000000       0.00000000    
 C   0.00000000       0.00000000       0.00000000       0.00000000    
           2

 O   3.14965773       0.00000000       0.00000000       0.00000000    
 C   0.00000000       0.00000000       0.00000000       0.00000000    
           2

 O   2.82860374       0.00000000       0.00000000       0.00000000    
 C   0.00000000       0.00000000       0.00000000       0.00000000    
           2

 O   2.29464006       0.00000000       0.00000000       0.00000000    
 C   0.00000000       0.00000000       0.00000000       0.00000000    
           2

 O   1.73828459       0.00000000       0.00000000       0.00000000    
 C   0.00000000       0.00000000       0.00000000       0.00000000    
           2

 O   2.38042259       0.00000000       0.00000000       0.00000000    
 C   0.00000000       0.00000000       0.00000000       0.00000000    
           2

 O   2.93615985       0.00000000       0.00000000       0.00000000    
 C   0.00000000       0.00000000       0.00000000       0.00000000    
           2

 O   3.27752066       0.00000000       0.00000000       0.00000000    
 C   0.00000000       0.00000000       0.00000000       0.00000000    
           2

 O   3.42796755       0.00000000       0.00000000       0.00000000    
 C   0.00000000       0.00000000       0.00000000       0.00000000    
           2

 O   3.40406346       0.00000000       0.00000000       0.00000000    
 C   0.00000000       0.00000000       0.00000000       0.00000000    
           2

 O   3.20307922       0.00000000       0.00000000       0.00000000    
 C   0.00000000       0.00000000       0.00000000       0.00000000    
           2

 O   2.80382800       0.00000000       0.00000000       0.00000000    
 C   0.00000000       0.00000000       0.00000000       0.00000000    
           2

 O   2.19298792       0.00000000       0.00000000       0.00000000    
 C   0.00000000       0.00000000       0.00000000       0.00000000    
           2

 O   1.66336584       0.00000000       0.00000000       0.00000000    
 C   0.00000000       0.00000000       0.00000000       0.00000000    
           2

 O   2.68558741       0.00000000       0.00000000       0.00000000    
 C   0.00000000       0.00000000       0.00000000       0.00000000    
           2

 O   3.50907898       0.00000000       0.00000000       0.00000000    
 C   0.00000000       0.00000000       0.00000000       0.00000000    
           2

 O   4.16761494       0.00000000       0.00000000       0.00000000    
 C   0.00000000       0.00000000       0.00000000       0.00000000    
           2

 O   4.73114777       0.00000000       0.00000000       0.00000000    
 C   0.00000000       0.00000000       0.00000000       0.00000000    
           2

 O   5.23980808       0.00000000       0.00000000       0.00000000    
 C   0.00000000       0.00000000       0.00000000       0.00000000    
           2

 O   5.71593523       0.00000000       0.00000000       0.00000000    
 C   0.00000000       0.00000000       0.00000000       0.00000000    
           2

 O   6.17236376       0.00000000       0.00000000       0.00000000    
 C   0.00000000       0.00000000       0.00000000       0.00000000    
           2

 O   6.61669254       0.00000000       0.00000000       0.00000000    
 C   0.00000000       0.00000000       0.00000000       0.00000000    
           2

 O   7.05351925       0.00000000       0.00000000       0.00000000    
 C   0.00000000       0.00000000       0.00000000       0.00000000    
           2

 O   7.48566675       0.00000000       0.00000000       0.00000000    
 C   0.00000000       0.00000000       0.00000000       0.00000000    
           2

 O   7.91488504       0.00000000       0.00000000       0.00000000    
 C   0.00000000       0.00000000       0.00000000       0.00000000    
           2

 O   8.34226418       0.00000000       0.00000000       0.00000000    
 C   0.00000000       0.00000000       0.00000000       0.00000000    
           2

 O   8.76848793       0.00000000       0.00000000       0.00000000    
 C   0.00000000       0.00000000       0.00000000       0.00000000    
           2

 O   9.19398499       0.00000000       0.00000000       0.00000000    
 C   0.00000000       0.00000000       0.00000000       0.00000000    
           2

 O   9.61902428       0.00000000       0.00000000       0.00000000    
 C   0.00000000       0.00000000       0.00000000       0.00000000    
           2

 O   10.0437746       0.00000000       0.00000000       0.00000000    
 C   0.00000000       0.00000000       0.00000000       0.00000000    
           2

 O   10.4683437       0.00000000       0.00000000       0.00000000    
 C   0.00000000       0.00000000       0.00000000       0.00000000    
           2

 O   10.8927984       0.00000000       0.00000000       0.00000000    
 C   0.00000000       0.00000000       0.00000000       0.00000000    
           2

 O   11.3171806       0.00000000       0.00000000       0.00000000    
 C   0.00000000       0.00000000       0.00000000       0.00000000    
           2

 O   11.7415180       0.00000000       0.00000000       0.00000000    
 C   0.00000000       0.00000000       0.00000000       0.00000000    
           2

 O   12.1658268       0.00000000       0.00000000       0.00000000    
 C   0.00000000       0.00000000       0.00000000       0.00000000    
           2

 O   12.5901175       0.00000000       0.00000000       0.00000000    
 C   0.00000000       0.00000000       0.00000000       0.00000000    
           2

 O   13.0143967       0.00000000       0.00000000       0.00000000    
 C   0.00000000       0.00000000       0.00000000       0.00000000    
           2

 O   13.4386683       0.00000000       0.00000000       0.00000000    
 C   0.00000000       0.00000000       0.00000000       0.00000000    
           2

 O   13.8629360       0.00000000       0.00000000       0.00000000    
 C   0.00000000       0.00000000       0.00000000       0.00000000    
           2

 O   14.2872009       0.00000000       0.00000000       0.00000000    
 C   0.00000000       0.00000000       0.00000000       0.00000000    
           2

 O   14.7114639       0.00000000       0.00000000       0.00000000    
 C   0.00000000       0.00000000       0.00000000       0.00000000    
           2

 O   15.1357260       0.00000000       0.00000000       0.00000000    
 C   0.00000000       0.00000000       0.00000000       0.00000000    
           2

 O   15.5599871       0.00000000       0.00000000       0.00000000    
 C   0.00000000       0.00000000       0.00000000       0.00000000    
           2

 O   15.9842472       0.00000000       0.00000000       0.00000000    
 C   0.00000000       0.00000000       0.00000000       0.00000000    
           2

 O   16.4085083       0.00000000       0.00000000       0.00000000    
 C   0.00000000       0.00000000       0.00000000       0.00000000    
           2

 O   16.8327675       0.00000000       0.00000000       0.00000000    
 C   0.00000000       0.00000000       0.00000000       0.00000000    
           2

 O   17.2570267       0.00000000       0.00000000       0.00000000    
 C   0.00000000       0.00000000       0.00000000       0.00000000    
           2

 O   17.6812859       0.00000000       0.00000000       0.00000000    
 C   0.00000000       0.00000000       0.00000000       0.00000000    
           2

 O   18.1055450       0.00000000       0.00000000       0.00000000    
 C   0.00000000       0.00000000       0.00000000       0.00000000    
           2

 O   18.5298042       0.00000000       0.00000000       0.00000000    
 C   0.00000000       0.00000000       0.00000000       0.00000000    
           2

 O   18.9540634       0.00000000       0.00000000       0.00000000    
 C   0.00000000       0.00000000       0.00000000       0.00000000    
           2

 O   19.3783226       0.00000000       0.00000000       0.00000000    
 C   0.00000000       0.00000000       0.00000000       0.00000000    
           2

 O   19.8025818       0.00000000       0.00000000       0.00000000    
 C   0.00000000       0.00000000       0.00000000       0.00000000    
           2

 O   20.2268410       0.00000000       0.00000000       0.00000000    
 C   0.00000000       0.00000000       0.00000000       0.00000000    
           2

 O   20.6511002       0.00000000       0.00000000       0.00000000    
 C   0.00000000       0.00000000       0.00000000       0.00000000    
           2

 O   21.0753593       0.00000000       0.00000000       0.00000000    
 C   0.00000000       0.00000000       0.00000000       0.00000000    
           2

 O   21.4996185       0.00000000       0.00000000       0.00000000    
 C   0.00000000       0.00000000       0.00000000       0.00000000    
           2

 O   21.9238777       0.00000000       0.00000000       0.00000000    
 C   0.00000000       0.00000000       0.00000000       0.00000000    
           2

 O   22.3481369       0.00000000       0.00000000       0.00000000    
 C   0.00000000       0.00000000       0.00000000       0.00000000    
           2

 O   22.7723961       0.00000000       0.00000000       0.00000000    
 C   0.00000000       0.00000000       0.00000000       0.00000000    
           2

 O   23.1966553       0.00000000       0.00000000       0.00000000    
 C   0.00000000       0.00000000       0.00000000       0.00000000    
           2

 O   23.6209145       0.00000000       0.00000000       0.00000000    
 C   0.00000000       0.00000000       0.00000000       0.00000000    
           2

 O   24.0451736       0.00000000       0.00000000       0.00000000    
 C   0.00000000       0.00000000       0.00000000       0.00000000    
           2

 O   24.4694328       0.00000000       0.00000000       0.00000000    
 C   0.00000000       0.00000000       0.00000000       0.00000000    
           2

 O   24.8936920       0.00000000       0.00000000       0.00000000    
 C   0.00000000       0.00000000       0.00000000       0.00000000    
           2

 O   25.3179512       0.00000000       0.00000000       0.00000000    
 C   0.00000000       0.00000000       0.00000000       0.00000000    
           2

 O   25.7422104       0.00000000       0.00000000       0.00000000    
 C   0.00000000       0.00000000       0.00000000       0.00000000    
           2

 O   26.1664696       0.00000000       0.00000000       0.00000000    
 C   0.00000000       0.00000000       0.00000000       0.00000000    
           2

 O   26.5907288       0.00000000       0.00000000       0.00000000    
 C   0.00000000       0.00000000       0.00000000       0.00000000    
           2

 O   27.0149879       0.00000000       0.00000000       0.00000000    
 C   0.00000000       0.00000000       0.00000000       0.00000000    
           2

 O   27.4392471       0.00000000       0.00000000       0.00000000    
 C   0.00000000       0.00000000       0.00000000       0.00000000    
           2

 O   27.8635063       0.00000000       0.00000000       0.00000000    
 C   0.00000000       0.00000000       0.00000000       0.00000000    
           2

 O   28.2877655       0.00000000       0.00000000       0.00000000    
 C   0.00000000       0.00000000       0.00000000       0.00000000    
           2

 O   28.7120247       0.00000000       0.00000000       0.00000000    
 C   0.00000000       0.00000000       0.00000000       0.00000000    
           2

 O   29.1362839       0.00000000       0.00000000       0.00000000    
 C   0.00000000       0.00000000       0.00000000       0.00000000    
           2

 O   29.5605431       0.00000000       0.00000000       0.00000000    
 C   0.00000000       0.00000000       0.00000000       0.00000000    
           2

 O   29.9848022       0.00000000       0.00000000       0.00000000    
 C   0.00000000       0.00000000       0.00000000       0.00000000    
           2

 O   30.4090614       0.00000000       0.00000000       0.00000000    
 C   0.00000000       0.00000000       0.00000000       0.00000000    
           2

 O   30.8333206       0.00000000       0.00000000       0.00000000    
 C   0.00000000       0.00000000       0.00000000       0.00000000    
           2

 O   31.2575798       0.00000000       0.00000000       0.00000000    
 C   0.00000000       0.00000000       0.00000000       0.00000000    
           2

 O   31.6818390       0.00000000       0.00000000       0.00000000    
 C   0.00000000       0.00000000       0.00000000       0.00000000    
           2

 O   32.1060982       0.00000000       0.00000000       0.00000000    
 C   0.00000000       0.00000000       0.00000000       0.00000000    
           2

 O   32.5303574       0.00000000       0.00000000       0.00000000    
 C   0.00000000       0.00000000       0.00000000       0.00000000    
           2

 O   32.9546165       0.00000000       0.00000000       0.00000000    
 C   0.00000000       0.00000000       0.00000000       0.00000000    
           2

 O   33.3788757       0.00000000       0.00000000       0.00000000    
 C   0.00000000       0.00000000       0.00000000       0.00000000    
           2

 O   33.8031349       0.00000000       0.00000000       0.00000000    
 C   0.00000000       0.00000000       0.00000000       0.00000000    
           2

 O   34.2273941       0.00000000       0.00000000       0.00000000    
 C   0.00000000       0.00000000       0.00000000       0.00000000    
           2

 O   34.6516533       0.00000000       0.00000000       0.00000000    
 C   0.00000000       0.00000000       0.00000000       0.00000000    
           2

 O   35.0759125       0.00000000       0.00000000       0.00000000    
 C   0.00000000       0.00000000       0.00000000       0.00000000    
           2

 O   35.5001717       0.00000000       0.00000000       0.00000000    
 C   0.00000000       0.00000000       0.00000000       0.00000000    
           2

 O   35.9244308       0.00000000       0.00000000       0.00000000    
 C   0.00000000       0.00000000       0.00000000       0.00000000    
           2

 O   36.3486900       0.00000000       0.00000000       0.00000000    
 C   0.00000000       0.00000000       0.00000000       0.00000000    
           2

 O   36.7729492       0.00000000       0.00000000       0.00000000    
 C   0.00000000       0.00000000       0.00000000       0.00000000    
