           2

 O   2.51193690       0.00000000       0.00000000       0.00000000    
 C   0.00000000       0.00000000       0.00000000       0.00000000    
           2

 O   2.50017428       0.00000000       0.00000000       0.00000000    
 C   0.00000000       0.00000000       0.00000000       0.00000000    
           2

 O   2.46395826       0.00000000       0.00000000       0.00000000    
 C   0.00000000       0.00000000       0.00000000       0.00000000    
           2

 O   2.40403152       0.00000000       0.00000000       0.00000000    
 C   0.00000000       0.00000000       0.00000000       0.00000000    
           2

 O   2.32291842       0.00000000       0.00000000       0.00000000    
 C   0.00000000       0.00000000       0.00000000       0.00000000    
           2

 O   2.22566366       0.00000000       0.00000000       0.00000000    
 C   0.00000000       0.00000000       0.00000000       0.00000000    
           2

 O   2.12111211       0.00000000       0.00000000       0.00000000    
 C   0.00000000       0.00000000       0.00000000       0.00000000    
           2

 O   2.02362967       0.00000000       0.00000000       0.00000000    
 C   0.00000000       0.00000000       0.00000000       0.00000000    
           2

 O   1.95447850       0.00000000       0.00000000       0.00000000    
 C   0.00000000       0.00000000       0.00000000       0.00000000    
           2

 O   1.94044769       0.00000000       0.00000000       0.00000000    
 C   0.00000000       0.00000000       0.00000000       0.00000000    
           2

 O   2.00561881       0.00000000       0.00000000       0.00000000    
 C   0.00000000       0.00000000       0.00000000       0.00000000    
           2

 O   2.15547180       0.00000000       0.00000000       0.00000000    
 C   0.00000000       0.00000000       0.00000000       0.00000000    
           2

 O   2.36627269       0.00000000       0.00000000       0.00000000    
 C   0.00000000       0.00000000       0.00000000       0.00000000    
           2

 O   2.59765530       0.00000000       0.00000000       0.00000000    
 C   0.00000000       0.00000000       0.00000000       0.00000000    
           2

 O   2.81670022       0.00000000       0.00000000       0.00000000    
 C   0.00000000       0.00000000       0.00000000       0.00000000    
           2

 O   3.00689316       0.00000000       0.00000000       0.00000000    
 C   0.00000000       0.00000000       0.00000000       0.00000000    
           2

 O   3.16311383       0.00000000       0.00000000       0.00000000    
 C   0.00000000       0.00000000       0.00000000       0.00000000    
           2

 O   3.28536725       0.00000000       0.00000000       0.00000000    
 C   0.00000000       0.00000000       0.00000000       0.00000000    
           2

 O   3.37532377       0.00000000       0.00000000       0.00000000    
 C   0.00000000       0.00000000       0.00000000       0.00000000    
           2

 O   3.43486476       0.00000000       0.00000000       0.00000000    
 C   0.00000000       0.00000000       0.00000000       0.00000000    
           2

 O   3.46555376       0.00000000       0.00000000       0.00000000    
 C   0.00000000       0.00000000       0.00000000       0.00000000    
           2

 O   3.46847320       0.00000000       0.00000000       0.00000000    
 C   0.00000000       0.00000000       0.00000000       0.00000000    
           2

 O   3.44419003       0.00000000       0.00000000       0.00000000    
 C   0.00000000       0.00000000       0.00000000       0.00000000    
           2

 O   3.39275837       0.00000000       0.00000000       0.00000000    
 C   0.00000000       0.00000000       0.00000000       0.00000000    
           2

 O   3.31372905       0.00000000       0.00000000       0.00000000    
 C   0.00000000       0.00000000       0.00000000       0.00000000    
           2

 O   3.20616174       0.00000000       0.00000000       0.00000000    
 C   0.00000000       0.00000000       0.00000000       0.00000000    
           2

 O   3.06865978       0.00000000       0.00000000       0.00000000    
 C   0.00000000       0.00000000       0.00000000       0.00000000    
           2

 O   2.89948130       0.00000000       0.00000000       0.00000000    
 C   0.00000000       0.00000000       0.00000000       0.00000000    
           2

 O   2.69686604       0.00000000       0.00000000       0.00000000    
 C   0.00000000       0.00000000       0.00000000       0.00000000    
           2

 O   2.45991802       0.00000000       0.00000000       0.00000000    
 C   0.00000000       0.00000000       0.00000000       0.00000000    
           2

 O   2.19089198       0.00000000       0.00000000       0.00000000    
 C   0.00000000       0.00000000       0.00000000       0.00000000    
           2

 O   1.90098429       0.00000000       0.00000000       0.00000000    
 C   0.00000000       0.00000000       0.00000000       0.00000000    
           2

 O   1.62447262       0.00000000       0.00000000       0.00000000    
 C   0.00000000       0.00000000       0.00000000       0.00000000    
           2

 O   1.44924152       0.00000000       0.00000000       0.00000000    
 C   0.00000000       0.00000000       0.00000000       0.00000000    
           2

 O   1.55622530       0.00000000       0.00000000       0.00000000    
 C   0.00000000       0.00000000       0.00000000       0.00000000    
           2

 O   2.14694762       0.00000000       0.00000000       0.00000000    
 C   0.00000000       0.00000000       0.00000000       0.00000000    
           2

 O   3.08810163       0.00000000       0.00000000       0.00000000    
 C   0.00000000       0.00000000       0.00000000       0.00000000    
           2

 O   4.05168581       0.00000000       0.00000000       0.00000000    
 C   0.00000000       0.00000000       0.00000000       0.00000000    
           2

 O   4.98203897       0.00000000       0.00000000       0.00000000    
 C   0.00000000       0.00000000       0.00000000       0.00000000    
           2

 O   5.89548397       0.00000000       0.00000000       0.00000000    
 C   0.00000000       0.00000000       0.00000000       0.00000000    
           2

 O   6.80212975       0.00000000       0.00000000       0.00000000    
 C   0.00000000       0.00000000       0.00000000       0.00000000    
           2

 O   7.70617199       0.00000000       0.00000000       0.00000000    
 C   0.00000000       0.00000000       0.00000000       0.00000000    
           2

 O   8.60923195       0.00000000       0.00000000       0.00000000    
 C   0.00000000       0.00000000       0.00000000       0.00000000    
           2

 O   9.51192284       0.00000000       0.00000000       0.00000000    
 C   0.00000000       0.00000000       0.00000000       0.00000000    
           2

 O   10.4144754       0.00000000       0.00000000       0.00000000    
 C   0.00000000       0.00000000       0.00000000       0.00000000    
           2

 O   11.3169765       0.00000000       0.00000000       0.00000000    
 C   0.00000000       0.00000000       0.00000000       0.00000000    
           2

 O   12.2194576       0.00000000       0.00000000       0.00000000    
 C   0.00000000       0.00000000       0.00000000       0.00000000    
           2

 O   13.1219311       0.00000000       0.00000000       0.00000000    
 C   0.00000000       0.00000000       0.00000000       0.00000000    
           2

 O   14.0244026       0.00000000       0.00000000       0.00000000    
 C   0.00000000       0.00000000       0.00000000       0.00000000    
           2

 O   14.9268723       0.00000000       0.00000000       0.00000000    
 C   0.00000000       0.00000000       0.00000000       0.00000000    
           2

 O   15.8293419       0.00000000       0.00000000       0.00000000    
 C   0.00000000       0.00000000       0.00000000       0.00000000    
           2

 O   16.7318115       0.00000000       0.00000000       0.00000000    
 C   0.00000000       0.00000000       0.00000000       0.00000000    
           2

 O   17.6342812       0.00000000       0.00000000       0.00000000    
 C   0.00000000       0.00000000       0.00000000       0.00000000    
           2

 O   18.5367508       0.00000000       0.00000000       0.00000000    
 C   0.00000000       0.00000000       0.00000000       0.00000000    
           2

 O   19.4392204       0.00000000       0.00000000       0.00000000    
 C   0.00000000       0.00000000       0.00000000       0.00000000    
           2

 O   20.3416901       0.00000000       0.00000000       0.00000000    
 C   0.00000000       0.00000000       0.00000000       0.00000000    
           2

 O   21.2441597       0.00000000       0.00000000       0.00000000    
 C   0.00000000       0.00000000       0.00000000       0.00000000    
           2

 O   22.1466293       0.00000000       0.00000000       0.00000000    
 C   0.00000000       0.00000000       0.00000000       0.00000000    
           2

 O   23.0490990       0.00000000       0.00000000       0.00000000    
 C   0.00000000       0.00000000       0.00000000       0.00000000    
           2

 O   23.9515686       0.00000000       0.00000000       0.00000000    
 C   0.00000000       0.00000000       0.00000000       0.00000000    
           2

 O   24.8540382       0.00000000       0.00000000       0.00000000    
 C   0.00000000       0.00000000       0.00000000       0.00000000    
           2

 O   25.7565079       0.00000000       0.00000000       0.00000000    
 C   0.00000000       0.00000000       0.00000000       0.00000000    
           2

 O   26.6589775       0.00000000       0.00000000       0.00000000    
 C   0.00000000       0.00000000       0.00000000       0.00000000    
           2

 O   27.5614471       0.00000000       0.00000000       0.00000000    
 C   0.00000000       0.00000000       0.00000000       0.00000000    
           2

 O   28.4639168       0.00000000       0.00000000       0.00000000    
 C   0.00000000       0.00000000       0.00000000       0.00000000    
           2

 O   29.3663864       0.00000000       0.00000000       0.00000000    
 C   0.00000000       0.00000000       0.00000000       0.00000000    
           2

 O   30.2688560       0.00000000       0.00000000       0.00000000    
 C   0.00000000       0.00000000       0.00000000       0.00000000    
           2

 O   31.1713257       0.00000000       0.00000000       0.00000000    
 C   0.00000000       0.00000000       0.00000000       0.00000000    
           2

 O   32.0737953       0.00000000       0.00000000       0.00000000    
 C   0.00000000       0.00000000       0.00000000       0.00000000    
           2

 O   32.9762650       0.00000000       0.00000000       0.00000000    
 C   0.00000000       0.00000000       0.00000000       0.00000000    
           2

 O   33.8787346       0.00000000       0.00000000       0.00000000    
 C   0.00000000       0.00000000       0.00000000       0.00000000    
           2

 O   34.7812042       0.00000000       0.00000000       0.00000000    
 C   0.00000000       0.00000000       0.00000000       0.00000000    
           2

 O   35.6836739       0.00000000       0.00000000       0.00000000    
 C   0.00000000       0.00000000       0.00000000       0.00000000    
           2

 O   36.5861435       0.00000000       0.00000000       0.00000000    
 C   0.00000000       0.00000000       0.00000000       0.00000000    
           2

 O   37.4886131       0.00000000       0.00000000       0.00000000    
 C   0.00000000       0.00000000       0.00000000       0.00000000    
           2

 O   38.3910828       0.00000000       0.00000000       0.00000000    
 C   0.00000000       0.00000000       0.00000000       0.00000000    
           2

 O   39.2935524       0.00000000       0.00000000       0.00000000    
 C   0.00000000       0.00000000       0.00000000       0.00000000    
           2

 O   40.1960220       0.00000000       0.00000000       0.00000000    
 C   0.00000000       0.00000000       0.00000000       0.00000000    
           2

 O   41.0984917       0.00000000       0.00000000       0.00000000    
 C   0.00000000       0.00000000       0.00000000       0.00000000    
           2

 O   42.0009613       0.00000000       0.00000000       0.00000000    
 C   0.00000000       0.00000000       0.00000000       0.00000000    
           2

 O   42.9034309       0.00000000       0.00000000       0.00000000    
 C   0.00000000       0.00000000       0.00000000       0.00000000    
           2

 O   43.8059006       0.00000000       0.00000000       0.00000000    
 C   0.00000000       0.00000000       0.00000000       0.00000000    
           2

 O   44.7083702       0.00000000       0.00000000       0.00000000    
 C   0.00000000       0.00000000       0.00000000       0.00000000    
           2

 O   45.6108398       0.00000000       0.00000000       0.00000000    
 C   0.00000000       0.00000000       0.00000000       0.00000000    
           2

 O   46.5133095       0.00000000       0.00000000       0.00000000    
 C   0.00000000       0.00000000       0.00000000       0.00000000    
           2

 O   47.4157791       0.00000000       0.00000000       0.00000000    
 C   0.00000000       0.00000000       0.00000000       0.00000000    
           2

 O   48.3182487       0.00000000       0.00000000       0.00000000    
 C   0.00000000       0.00000000       0.00000000       0.00000000    
           2

 O   49.2207184       0.00000000       0.00000000       0.00000000    
 C   0.00000000       0.00000000       0.00000000       0.00000000    
           2

 O   50.1231880       0.00000000       0.00000000       0.00000000    
 C   0.00000000       0.00000000       0.00000000       0.00000000    
           2

 O   51.0256577       0.00000000       0.00000000       0.00000000    
 C   0.00000000       0.00000000       0.00000000       0.00000000    
           2

 O   51.9281273       0.00000000       0.00000000       0.00000000    
 C   0.00000000       0.00000000       0.00000000       0.00000000    
           2

 O   52.8305969       0.00000000       0.00000000       0.00000000    
 C   0.00000000       0.00000000       0.00000000       0.00000000    
           2

 O   53.7330666       0.00000000       0.00000000       0.00000000    
 C   0.00000000       0.00000000       0.00000000       0.00000000    
           2

 O   54.6355362       0.00000000       0.00000000       0.00000000    
 C   0.00000000       0.00000000       0.00000000       0.00000000    
           2

 O   55.5380058       0.00000000       0.00000000       0.00000000    
 C   0.00000000       0.00000000       0.00000000       0.00000000    
           2

 O   56.4404755       0.00000000       0.00000000       0.00000000    
 C   0.00000000       0.00000000       0.00000000       0.00000000    
           2

 O   57.3429451       0.00000000       0.00000000       0.00000000    
 C   0.00000000       0.00000000       0.00000000       0.00000000    
           2

 O   58.2454147       0.00000000       0.00000000       0.00000000    
 C   0.00000000       0.00000000       0.00000000       0.00000000    
           2

 O   59.1478844       0.00000000       0.00000000       0.00000000    
 C   0.00000000       0.00000000       0.00000000       0.00000000    
           2

 O   60.0503540       0.00000000       0.00000000       0.00000000    
 C   0.00000000       0.00000000       0.00000000       0.00000000    
           2

 O   60.9528236       0.00000000       0.00000000       0.00000000    
 C   0.00000000       0.00000000       0.00000000       0.00000000    
           2

 O   61.8552933       0.00000000       0.00000000       0.00000000    
 C   0.00000000       0.00000000       0.00000000       0.00000000    
           2

 O   62.7577629       0.00000000       0.00000000       0.00000000    
 C   0.00000000       0.00000000       0.00000000       0.00000000    
           2

 O   63.6602325       0.00000000       0.00000000       0.00000000    
 C   0.00000000       0.00000000       0.00000000       0.00000000    
           2

 O   64.5626984       0.00000000       0.00000000       0.00000000    
 C   0.00000000       0.00000000       0.00000000       0.00000000    
           2

 O   65.4651642       0.00000000       0.00000000       0.00000000    
 C   0.00000000       0.00000000       0.00000000       0.00000000    
           2

 O   66.3676300       0.00000000       0.00000000       0.00000000    
 C   0.00000000       0.00000000       0.00000000       0.00000000    
           2

 O   67.2700958       0.00000000       0.00000000       0.00000000    
 C   0.00000000       0.00000000       0.00000000       0.00000000    
           2

 O   68.1725616       0.00000000       0.00000000       0.00000000    
 C   0.00000000       0.00000000       0.00000000       0.00000000    
           2

 O   69.0750275       0.00000000       0.00000000       0.00000000    
 C   0.00000000       0.00000000       0.00000000       0.00000000    
           2

 O   69.9774933       0.00000000       0.00000000       0.00000000    
 C   0.00000000       0.00000000       0.00000000       0.00000000    
           2

 O   70.8799591       0.00000000       0.00000000       0.00000000    
 C   0.00000000       0.00000000       0.00000000       0.00000000    
           2

 O   71.7824249       0.00000000       0.00000000       0.00000000    
 C   0.00000000       0.00000000       0.00000000       0.00000000    
           2

 O   72.6848907       0.00000000       0.00000000       0.00000000    
 C   0.00000000       0.00000000       0.00000000       0.00000000    
           2

 O   73.5873566       0.00000000       0.00000000       0.00000000    
 C   0.00000000       0.00000000       0.00000000       0.00000000    
           2

 O   74.4898224       0.00000000       0.00000000       0.00000000    
 C   0.00000000       0.00000000       0.00000000       0.00000000    
           2

 O   75.3922882       0.00000000       0.00000000       0.00000000    
 C   0.00000000       0.00000000       0.00000000       0.00000000    
           2

 O   76.2947540       0.00000000       0.00000000       0.00000000    
 C   0.00000000       0.00000000       0.00000000       0.00000000    
           2

 O   77.1972198       0.00000000       0.00000000       0.00000000    
 C   0.00000000       0.00000000       0.00000000       0.00000000    
           2

 O   78.0996857       0.00000000       0.00000000       0.00000000    
 C   0.00000000       0.00000000       0.00000000       0.00000000    
           2

 O   79.0021515       0.00000000       0.00000000       0.00000000    
 C   0.00000000       0.00000000       0.00000000       0.00000000    
           2

 O   79.9046173       0.00000000       0.00000000       0.00000000    
 C   0.00000000       0.00000000       0.00000000       0.00000000    
           2

 O   80.8070831       0.00000000       0.00000000       0.00000000    
 C   0.00000000       0.00000000       0.00000000       0.00000000    
           2

 O   81.7095490       0.00000000       0.00000000       0.00000000    
 C   0.00000000       0.00000000       0.00000000       0.00000000    
           2

 O   82.6120148       0.00000000       0.00000000       0.00000000    
 C   0.00000000       0.00000000       0.00000000       0.00000000    
           2

 O   83.5144806       0.00000000       0.00000000       0.00000000    
 C   0.00000000       0.00000000       0.00000000       0.00000000    
           2

 O   84.4169464       0.00000000       0.00000000       0.00000000    
 C   0.00000000       0.00000000       0.00000000       0.00000000    
           2

 O   85.3194122       0.00000000       0.00000000       0.00000000    
 C   0.00000000       0.00000000       0.00000000       0.00000000    
           2

 O   86.2218781       0.00000000       0.00000000       0.00000000    
 C   0.00000000       0.00000000       0.00000000       0.00000000    
           2

 O   87.1243439       0.00000000       0.00000000       0.00000000    
 C   0.00000000       0.00000000       0.00000000       0.00000000    
           2

 O   88.0268097       0.00000000       0.00000000       0.00000000    
 C   0.00000000       0.00000000       0.00000000       0.00000000    
           2

 O   88.9292755       0.00000000       0.00000000       0.00000000    
 C   0.00000000       0.00000000       0.00000000       0.00000000    
           2

 O   89.8317413       0.00000000       0.00000000       0.00000000    
 C   0.00000000       0.00000000       0.00000000       0.00000000    
           2

 O   90.7342072       0.00000000       0.00000000       0.00000000    
 C   0.00000000       0.00000000       0.00000000       0.00000000    
           2

 O   91.6366730       0.00000000       0.00000000       0.00000000    
 C   0.00000000       0.00000000       0.00000000       0.00000000    
           2

 O   92.5391388       0.00000000       0.00000000       0.00000000    
 C   0.00000000       0.00000000       0.00000000       0.00000000    
           2

 O   93.4416046       0.00000000       0.00000000       0.00000000    
 C   0.00000000       0.00000000       0.00000000       0.00000000    
           2

 O   94.3440704       0.00000000       0.00000000       0.00000000    
 C   0.00000000       0.00000000       0.00000000       0.00000000    
           2

 O   95.2465363       0.00000000       0.00000000       0.00000000    
 C   0.00000000       0.00000000       0.00000000       0.00000000    
           2

 O   96.1490021       0.00000000       0.00000000       0.00000000    
 C   0.00000000       0.00000000       0.00000000       0.00000000    
           2

 O   97.0514679       0.00000000       0.00000000       0.00000000    
 C   0.00000000       0.00000000       0.00000000       0.00000000    
           2

 O   97.9539337       0.00000000       0.00000000       0.00000000    
 C   0.00000000       0.00000000       0.00000000       0.00000000    
           2

 O   98.8563995       0.00000000       0.00000000       0.00000000    
 C   0.00000000       0.00000000       0.00000000       0.00000000    
           2

 O   99.7588654       0.00000000       0.00000000       0.00000000    
 C   0.00000000       0.00000000       0.00000000       0.00000000    
           2

 O   100.661331       0.00000000       0.00000000       0.00000000    
 C   0.00000000       0.00000000       0.00000000       0.00000000    
           2

 O   101.563797       0.00000000       0.00000000       0.00000000    
 C   0.00000000       0.00000000       0.00000000       0.00000000    
           2

 O   102.466263       0.00000000       0.00000000       0.00000000    
 C   0.00000000       0.00000000       0.00000000       0.00000000    
           2

 O   103.368729       0.00000000       0.00000000       0.00000000    
 C   0.00000000       0.00000000       0.00000000       0.00000000    
           2

 O   104.271194       0.00000000       0.00000000       0.00000000    
 C   0.00000000       0.00000000       0.00000000       0.00000000    
           2

 O   105.173660       0.00000000       0.00000000       0.00000000    
 C   0.00000000       0.00000000       0.00000000       0.00000000    
           2

 O   106.076126       0.00000000       0.00000000       0.00000000    
 C   0.00000000       0.00000000       0.00000000       0.00000000    
           2

 O   106.978592       0.00000000       0.00000000       0.00000000    
 C   0.00000000       0.00000000       0.00000000       0.00000000    
           2

 O   107.881058       0.00000000       0.00000000       0.00000000    
 C   0.00000000       0.00000000       0.00000000       0.00000000    
           2

 O   108.783524       0.00000000       0.00000000       0.00000000    
 C   0.00000000       0.00000000       0.00000000       0.00000000    
           2

 O   109.685989       0.00000000       0.00000000       0.00000000    
 C   0.00000000       0.00000000       0.00000000       0.00000000    
           2

 O   110.588455       0.00000000       0.00000000       0.00000000    
 C   0.00000000       0.00000000       0.00000000       0.00000000    
           2

 O   111.490921       0.00000000       0.00000000       0.00000000    
 C   0.00000000       0.00000000       0.00000000       0.00000000    
           2

 O   112.393387       0.00000000       0.00000000       0.00000000    
 C   0.00000000       0.00000000       0.00000000       0.00000000    
           2

 O   113.295853       0.00000000       0.00000000       0.00000000    
 C   0.00000000       0.00000000       0.00000000       0.00000000    
           2

 O   114.198318       0.00000000       0.00000000       0.00000000    
 C   0.00000000       0.00000000       0.00000000       0.00000000    
           2

 O   115.100784       0.00000000       0.00000000       0.00000000    
 C   0.00000000       0.00000000       0.00000000       0.00000000    
           2

 O   116.003250       0.00000000       0.00000000       0.00000000    
 C   0.00000000       0.00000000       0.00000000       0.00000000    
           2

 O   116.905716       0.00000000       0.00000000       0.00000000    
 C   0.00000000       0.00000000       0.00000000       0.00000000    
           2

 O   117.808182       0.00000000       0.00000000       0.00000000    
 C   0.00000000       0.00000000       0.00000000       0.00000000    
           2

 O   118.710648       0.00000000       0.00000000       0.00000000    
 C   0.00000000       0.00000000       0.00000000       0.00000000    
           2

 O   119.613113       0.00000000       0.00000000       0.00000000    
 C   0.00000000       0.00000000       0.00000000       0.00000000    
           2

 O   120.515579       0.00000000       0.00000000       0.00000000    
 C   0.00000000       0.00000000       0.00000000       0.00000000    
           2

 O   121.418045       0.00000000       0.00000000       0.00000000    
 C   0.00000000       0.00000000       0.00000000       0.00000000    
           2

 O   122.320511       0.00000000       0.00000000       0.00000000    
 C   0.00000000       0.00000000       0.00000000       0.00000000    
           2

 O   123.222977       0.00000000       0.00000000       0.00000000    
 C   0.00000000       0.00000000       0.00000000       0.00000000    
           2

 O   124.125443       0.00000000       0.00000000       0.00000000    
 C   0.00000000       0.00000000       0.00000000       0.00000000    
           2

 O   125.027908       0.00000000       0.00000000       0.00000000    
 C   0.00000000       0.00000000       0.00000000       0.00000000    
           2

 O   125.930374       0.00000000       0.00000000       0.00000000    
 C   0.00000000       0.00000000       0.00000000       0.00000000    
           2

 O   126.832840       0.00000000       0.00000000       0.00000000    
 C   0.00000000       0.00000000       0.00000000       0.00000000    
           2

 O   127.735306       0.00000000       0.00000000       0.00000000    
 C   0.00000000       0.00000000       0.00000000       0.00000000    
           2

 O   128.637772       0.00000000       0.00000000       0.00000000    
 C   0.00000000       0.00000000       0.00000000       0.00000000    
           2

 O   129.540237       0.00000000       0.00000000       0.00000000    
 C   0.00000000       0.00000000       0.00000000       0.00000000    
           2

 O   130.442703       0.00000000       0.00000000       0.00000000    
 C   0.00000000       0.00000000       0.00000000       0.00000000    
           2

 O   131.345169       0.00000000       0.00000000       0.00000000    
 C   0.00000000       0.00000000       0.00000000       0.00000000    
           2

 O   132.247635       0.00000000       0.00000000       0.00000000    
 C   0.00000000       0.00000000       0.00000000       0.00000000    
           2

 O   133.150101       0.00000000       0.00000000       0.00000000    
 C   0.00000000       0.00000000       0.00000000       0.00000000    
           2

 O   134.052567       0.00000000       0.00000000       0.00000000    
 C   0.00000000       0.00000000       0.00000000       0.00000000    
           2

 O   134.955032       0.00000000       0.00000000       0.00000000    
 C   0.00000000       0.00000000       0.00000000       0.00000000    
           2

 O   135.857498       0.00000000       0.00000000       0.00000000    
 C   0.00000000       0.00000000       0.00000000       0.00000000    
           2

 O   136.759964       0.00000000       0.00000000       0.00000000    
 C   0.00000000       0.00000000       0.00000000       0.00000000    
           2

 O   137.662430       0.00000000       0.00000000       0.00000000    
 C   0.00000000       0.00000000       0.00000000       0.00000000    
           2

 O   138.564896       0.00000000       0.00000000       0.00000000    
 C   0.00000000       0.00000000       0.00000000       0.00000000    
           2

 O   139.467361       0.00000000       0.00000000       0.00000000    
 C   0.00000000       0.00000000       0.00000000       0.00000000    
           2

 O   140.369827       0.00000000       0.00000000       0.00000000    
 C   0.00000000       0.00000000       0.00000000       0.00000000    
           2

 O   141.272293       0.00000000       0.00000000       0.00000000    
 C   0.00000000       0.00000000       0.00000000       0.00000000    
           2

 O   142.174759       0.00000000       0.00000000       0.00000000    
 C   0.00000000       0.00000000       0.00000000       0.00000000    
           2

 O   143.077225       0.00000000       0.00000000       0.00000000    
 C   0.00000000       0.00000000       0.00000000       0.00000000    
           2

 O   143.979691       0.00000000       0.00000000       0.00000000    
 C   0.00000000       0.00000000       0.00000000       0.00000000    
           2

 O   144.882156       0.00000000       0.00000000       0.00000000    
 C   0.00000000       0.00000000       0.00000000       0.00000000    
           2

 O   145.784622       0.00000000       0.00000000       0.00000000    
 C   0.00000000       0.00000000       0.00000000       0.00000000    
           2

 O   146.687088       0.00000000       0.00000000       0.00000000    
 C   0.00000000       0.00000000       0.00000000       0.00000000    
           2

 O   147.589554       0.00000000       0.00000000       0.00000000    
 C   0.00000000       0.00000000       0.00000000       0.00000000    
           2

 O   148.492020       0.00000000       0.00000000       0.00000000    
 C   0.00000000       0.00000000       0.00000000       0.00000000    
           2

 O   149.394485       0.00000000       0.00000000       0.00000000    
 C   0.00000000       0.00000000       0.00000000       0.00000000    
           2

 O   150.296951       0.00000000       0.00000000       0.00000000    
 C   0.00000000       0.00000000       0.00000000       0.00000000    
           2

 O   151.199417       0.00000000       0.00000000       0.00000000    
 C   0.00000000       0.00000000       0.00000000       0.00000000    
           2

 O   152.101883       0.00000000       0.00000000       0.00000000    
 C   0.00000000       0.00000000       0.00000000       0.00000000    
           2

 O   153.004349       0.00000000       0.00000000       0.00000000    
 C   0.00000000       0.00000000       0.00000000       0.00000000    
           2

 O   153.906815       0.00000000       0.00000000       0.00000000    
 C   0.00000000       0.00000000       0.00000000       0.00000000    
           2

 O   154.809280       0.00000000       0.00000000       0.00000000    
 C   0.00000000       0.00000000       0.00000000       0.00000000    
           2

 O   155.711746       0.00000000       0.00000000       0.00000000    
 C   0.00000000       0.00000000       0.00000000       0.00000000    
           2

 O   156.614212       0.00000000       0.00000000       0.00000000    
 C   0.00000000       0.00000000       0.00000000       0.00000000    
           2

 O   157.516678       0.00000000       0.00000000       0.00000000    
 C   0.00000000       0.00000000       0.00000000       0.00000000    
           2

 O   158.419144       0.00000000       0.00000000       0.00000000    
 C   0.00000000       0.00000000       0.00000000       0.00000000    
           2

 O   159.321609       0.00000000       0.00000000       0.00000000    
 C   0.00000000       0.00000000       0.00000000       0.00000000    
           2

 O   160.224075       0.00000000       0.00000000       0.00000000    
 C   0.00000000       0.00000000       0.00000000       0.00000000    
           2

 O   161.126541       0.00000000       0.00000000       0.00000000    
 C   0.00000000       0.00000000       0.00000000       0.00000000    
           2

 O   162.029007       0.00000000       0.00000000       0.00000000    
 C   0.00000000       0.00000000       0.00000000       0.00000000    
           2

 O   162.931473       0.00000000       0.00000000       0.00000000    
 C   0.00000000       0.00000000       0.00000000       0.00000000    
           2

 O   163.833939       0.00000000       0.00000000       0.00000000    
 C   0.00000000       0.00000000       0.00000000       0.00000000    
           2

 O   164.736404       0.00000000       0.00000000       0.00000000    
 C   0.00000000       0.00000000       0.00000000       0.00000000    
           2

 O   165.638870       0.00000000       0.00000000       0.00000000    
 C   0.00000000       0.00000000       0.00000000       0.00000000    
           2

 O   166.541336       0.00000000       0.00000000       0.00000000    
 C   0.00000000       0.00000000       0.00000000       0.00000000    
           2

 O   167.443802       0.00000000       0.00000000       0.00000000    
 C   0.00000000       0.00000000       0.00000000       0.00000000    
           2

 O   168.346268       0.00000000       0.00000000       0.00000000    
 C   0.00000000       0.00000000       0.00000000       0.00000000    
           2

 O   169.248734       0.00000000       0.00000000       0.00000000    
 C   0.00000000       0.00000000       0.00000000       0.00000000    
           2

 O   170.151199       0.00000000       0.00000000       0.00000000    
 C   0.00000000       0.00000000       0.00000000       0.00000000    
           2

 O   171.053665       0.00000000       0.00000000       0.00000000    
 C   0.00000000       0.00000000       0.00000000       0.00000000    
           2

 O   171.956131       0.00000000       0.00000000       0.00000000    
 C   0.00000000       0.00000000       0.00000000       0.00000000    
           2

 O   172.858597       0.00000000       0.00000000       0.00000000    
 C   0.00000000       0.00000000       0.00000000       0.00000000    
           2

 O   173.761063       0.00000000       0.00000000       0.00000000    
 C   0.00000000       0.00000000       0.00000000       0.00000000    
           2

 O   174.663528       0.00000000       0.00000000       0.00000000    
 C   0.00000000       0.00000000       0.00000000       0.00000000    
           2

 O   175.565994       0.00000000       0.00000000       0.00000000    
 C   0.00000000       0.00000000       0.00000000       0.00000000    
           2

 O   176.468460       0.00000000       0.00000000       0.00000000    
 C   0.00000000       0.00000000       0.00000000       0.00000000    
           2

 O   177.370926       0.00000000       0.00000000       0.00000000    
 C   0.00000000       0.00000000       0.00000000       0.00000000    
           2

 O   178.273392       0.00000000       0.00000000       0.00000000    
 C   0.00000000       0.00000000       0.00000000       0.00000000    
           2

 O   179.175858       0.00000000       0.00000000       0.00000000    
 C   0.00000000       0.00000000       0.00000000       0.00000000    
           2

 O   180.078323       0.00000000       0.00000000       0.00000000    
 C   0.00000000       0.00000000       0.00000000       0.00000000    
           2

 O   180.980789       0.00000000       0.00000000       0.00000000    
 C   0.00000000       0.00000000       0.00000000       0.00000000    
           2

 O   181.883255       0.00000000       0.00000000       0.00000000    
 C   0.00000000       0.00000000       0.00000000       0.00000000    
           2

 O   182.785721       0.00000000       0.00000000       0.00000000    
 C   0.00000000       0.00000000       0.00000000       0.00000000    
           2

 O   183.688187       0.00000000       0.00000000       0.00000000    
 C   0.00000000       0.00000000       0.00000000       0.00000000    
           2

 O   184.590652       0.00000000       0.00000000       0.00000000    
 C   0.00000000       0.00000000       0.00000000       0.00000000    
           2

 O   185.493118       0.00000000       0.00000000       0.00000000    
 C   0.00000000       0.00000000       0.00000000       0.00000000    
           2

 O   186.395584       0.00000000       0.00000000       0.00000000    
 C   0.00000000       0.00000000       0.00000000       0.00000000    
           2

 O   187.298050       0.00000000       0.00000000       0.00000000    
 C   0.00000000       0.00000000       0.00000000       0.00000000    
           2

 O   188.200516       0.00000000       0.00000000       0.00000000    
 C   0.00000000       0.00000000       0.00000000       0.00000000    
           2

 O   189.102982       0.00000000       0.00000000       0.00000000    
 C   0.00000000       0.00000000       0.00000000       0.00000000    
           2

 O   190.005447       0.00000000       0.00000000       0.00000000    
 C   0.00000000       0.00000000       0.00000000       0.00000000    
           2

 O   190.907913       0.00000000       0.00000000       0.00000000    
 C   0.00000000       0.00000000       0.00000000       0.00000000    
           2

 O   191.810379       0.00000000       0.00000000       0.00000000    
 C   0.00000000       0.00000000       0.00000000       0.00000000    
           2

 O   192.712845       0.00000000       0.00000000       0.00000000    
 C   0.00000000       0.00000000       0.00000000       0.00000000    
           2

 O   193.615311       0.00000000       0.00000000       0.00000000    
 C   0.00000000       0.00000000       0.00000000       0.00000000    
           2

 O   194.517776       0.00000000       0.00000000       0.00000000    
 C   0.00000000       0.00000000       0.00000000       0.00000000    
           2

 O   195.420242       0.00000000       0.00000000       0.00000000    
 C   0.00000000       0.00000000       0.00000000       0.00000000    
