           2

 O   3.54860067       0.00000000       0.00000000       0.00000000    
 C   0.00000000       0.00000000       0.00000000       0.00000000    
           2

 O   4.06318760       0.00000000       0.00000000       0.00000000    
 C   0.00000000       0.00000000       0.00000000       0.00000000    
           2

 O   4.55212021       0.00000000       0.00000000       0.00000000    
 C   0.00000000       0.00000000       0.00000000       0.00000000    
           2

 O   5.02432013       0.00000000       0.00000000       0.00000000    
 C   0.00000000       0.00000000       0.00000000       0.00000000    
           2

 O   5.48602104       0.00000000       0.00000000       0.00000000    
 C   0.00000000       0.00000000       0.00000000       0.00000000    
           2

 O   5.94121218       0.00000000       0.00000000       0.00000000    
 C   0.00000000       0.00000000       0.00000000       0.00000000    
           2

 O   6.39238310       0.00000000       0.00000000       0.00000000    
 C   0.00000000       0.00000000       0.00000000       0.00000000    
           2

 O   6.84107447       0.00000000       0.00000000       0.00000000    
 C   0.00000000       0.00000000       0.00000000       0.00000000    
           2

 O   7.28823757       0.00000000       0.00000000       0.00000000    
 C   0.00000000       0.00000000       0.00000000       0.00000000    
           2

 O   7.73445845       0.00000000       0.00000000       0.00000000    
 C   0.00000000       0.00000000       0.00000000       0.00000000    
           2

 O   8.18009853       0.00000000       0.00000000       0.00000000    
 C   0.00000000       0.00000000       0.00000000       0.00000000    
           2

 O   8.62538147       0.00000000       0.00000000       0.00000000    
 C   0.00000000       0.00000000       0.00000000       0.00000000    
           2

 O   9.07044315       0.00000000       0.00000000       0.00000000    
 C   0.00000000       0.00000000       0.00000000       0.00000000    
           2

 O   9.51536942       0.00000000       0.00000000       0.00000000    
 C   0.00000000       0.00000000       0.00000000       0.00000000    
           2

 O   9.96021175       0.00000000       0.00000000       0.00000000    
 C   0.00000000       0.00000000       0.00000000       0.00000000    
           2

 O   10.4050026       0.00000000       0.00000000       0.00000000    
 C   0.00000000       0.00000000       0.00000000       0.00000000    
           2

 O   10.8497610       0.00000000       0.00000000       0.00000000    
 C   0.00000000       0.00000000       0.00000000       0.00000000    
           2

 O   11.2945004       0.00000000       0.00000000       0.00000000    
 C   0.00000000       0.00000000       0.00000000       0.00000000    
           2

 O   11.7392273       0.00000000       0.00000000       0.00000000    
 C   0.00000000       0.00000000       0.00000000       0.00000000    
           2

 O   12.1839466       0.00000000       0.00000000       0.00000000    
 C   0.00000000       0.00000000       0.00000000       0.00000000    
           2

 O   12.6286621       0.00000000       0.00000000       0.00000000    
 C   0.00000000       0.00000000       0.00000000       0.00000000    
           2

 O   13.0733747       0.00000000       0.00000000       0.00000000    
 C   0.00000000       0.00000000       0.00000000       0.00000000    
           2

 O   13.5180855       0.00000000       0.00000000       0.00000000    
 C   0.00000000       0.00000000       0.00000000       0.00000000    
           2

 O   13.9627953       0.00000000       0.00000000       0.00000000    
 C   0.00000000       0.00000000       0.00000000       0.00000000    
           2

 O   14.4075041       0.00000000       0.00000000       0.00000000    
 C   0.00000000       0.00000000       0.00000000       0.00000000    
           2

 O   14.8522129       0.00000000       0.00000000       0.00000000    
 C   0.00000000       0.00000000       0.00000000       0.00000000    
           2

 O   15.2969208       0.00000000       0.00000000       0.00000000    
 C   0.00000000       0.00000000       0.00000000       0.00000000    
           2

 O   15.7416286       0.00000000       0.00000000       0.00000000    
 C   0.00000000       0.00000000       0.00000000       0.00000000    
           2

 O   16.1863365       0.00000000       0.00000000       0.00000000    
 C   0.00000000       0.00000000       0.00000000       0.00000000    
           2

 O   16.6310444       0.00000000       0.00000000       0.00000000    
 C   0.00000000       0.00000000       0.00000000       0.00000000    
           2

 O   17.0757523       0.00000000       0.00000000       0.00000000    
 C   0.00000000       0.00000000       0.00000000       0.00000000    
           2

 O   17.5204601       0.00000000       0.00000000       0.00000000    
 C   0.00000000       0.00000000       0.00000000       0.00000000    
           2

 O   17.9651680       0.00000000       0.00000000       0.00000000    
 C   0.00000000       0.00000000       0.00000000       0.00000000    
           2

 O   18.4098759       0.00000000       0.00000000       0.00000000    
 C   0.00000000       0.00000000       0.00000000       0.00000000    
           2

 O   18.8545837       0.00000000       0.00000000       0.00000000    
 C   0.00000000       0.00000000       0.00000000       0.00000000    
           2

 O   19.2992916       0.00000000       0.00000000       0.00000000    
 C   0.00000000       0.00000000       0.00000000       0.00000000    
           2

 O   19.7439995       0.00000000       0.00000000       0.00000000    
 C   0.00000000       0.00000000       0.00000000       0.00000000    
           2

 O   20.1887074       0.00000000       0.00000000       0.00000000    
 C   0.00000000       0.00000000       0.00000000       0.00000000    
           2

 O   20.6334152       0.00000000       0.00000000       0.00000000    
 C   0.00000000       0.00000000       0.00000000       0.00000000    
           2

 O   21.0781231       0.00000000       0.00000000       0.00000000    
 C   0.00000000       0.00000000       0.00000000       0.00000000    
           2

 O   21.5228310       0.00000000       0.00000000       0.00000000    
 C   0.00000000       0.00000000       0.00000000       0.00000000    
           2

 O   21.9675388       0.00000000       0.00000000       0.00000000    
 C   0.00000000       0.00000000       0.00000000       0.00000000    
           2

 O   22.4122467       0.00000000       0.00000000       0.00000000    
 C   0.00000000       0.00000000       0.00000000       0.00000000    
           2

 O   22.8569546       0.00000000       0.00000000       0.00000000    
 C   0.00000000       0.00000000       0.00000000       0.00000000    
           2

 O   23.3016624       0.00000000       0.00000000       0.00000000    
 C   0.00000000       0.00000000       0.00000000       0.00000000    
           2

 O   23.7463703       0.00000000       0.00000000       0.00000000    
 C   0.00000000       0.00000000       0.00000000       0.00000000    
           2

 O   24.1910782       0.00000000       0.00000000       0.00000000    
 C   0.00000000       0.00000000       0.00000000       0.00000000    
           2

 O   24.6357861       0.00000000       0.00000000       0.00000000    
 C   0.00000000       0.00000000       0.00000000       0.00000000    
           2

 O   25.0804939       0.00000000       0.00000000       0.00000000    
 C   0.00000000       0.00000000       0.00000000       0.00000000    
           2

 O   25.5252018       0.00000000       0.00000000       0.00000000    
 C   0.00000000       0.00000000       0.00000000       0.00000000    
           2

 O   25.9699097       0.00000000       0.00000000       0.00000000    
 C   0.00000000       0.00000000       0.00000000       0.00000000    
           2

 O   26.4146175       0.00000000       0.00000000       0.00000000    
 C   0.00000000       0.00000000       0.00000000       0.00000000    
           2

 O   26.8593254       0.00000000       0.00000000       0.00000000    
 C   0.00000000       0.00000000       0.00000000       0.00000000    
           2

 O   27.3040333       0.00000000       0.00000000       0.00000000    
 C   0.00000000       0.00000000       0.00000000       0.00000000    
           2

 O   27.7487411       0.00000000       0.00000000       0.00000000    
 C   0.00000000       0.00000000       0.00000000       0.00000000    
           2

 O   28.1934490       0.00000000       0.00000000       0.00000000    
 C   0.00000000       0.00000000       0.00000000       0.00000000    
           2

 O   28.6381569       0.00000000       0.00000000       0.00000000    
 C   0.00000000       0.00000000       0.00000000       0.00000000    
           2

 O   29.0828648       0.00000000       0.00000000       0.00000000    
 C   0.00000000       0.00000000       0.00000000       0.00000000    
           2

 O   29.5275726       0.00000000       0.00000000       0.00000000    
 C   0.00000000       0.00000000       0.00000000       0.00000000    
           2

 O   29.9722805       0.00000000       0.00000000       0.00000000    
 C   0.00000000       0.00000000       0.00000000       0.00000000    
           2

 O   30.4169884       0.00000000       0.00000000       0.00000000    
 C   0.00000000       0.00000000       0.00000000       0.00000000    
           2

 O   30.8616962       0.00000000       0.00000000       0.00000000    
 C   0.00000000       0.00000000       0.00000000       0.00000000    
           2

 O   31.3064041       0.00000000       0.00000000       0.00000000    
 C   0.00000000       0.00000000       0.00000000       0.00000000    
           2

 O   31.7511120       0.00000000       0.00000000       0.00000000    
 C   0.00000000       0.00000000       0.00000000       0.00000000    
           2

 O   32.1958199       0.00000000       0.00000000       0.00000000    
 C   0.00000000       0.00000000       0.00000000       0.00000000    
           2

 O   32.6405258       0.00000000       0.00000000       0.00000000    
 C   0.00000000       0.00000000       0.00000000       0.00000000    
           2

 O   33.0852318       0.00000000       0.00000000       0.00000000    
 C   0.00000000       0.00000000       0.00000000       0.00000000    
           2

 O   33.5299377       0.00000000       0.00000000       0.00000000    
 C   0.00000000       0.00000000       0.00000000       0.00000000    
           2

 O   33.9746437       0.00000000       0.00000000       0.00000000    
 C   0.00000000       0.00000000       0.00000000       0.00000000    
           2

 O   34.4193497       0.00000000       0.00000000       0.00000000    
 C   0.00000000       0.00000000       0.00000000       0.00000000    
           2

 O   34.8640556       0.00000000       0.00000000       0.00000000    
 C   0.00000000       0.00000000       0.00000000       0.00000000    
           2

 O   35.3087616       0.00000000       0.00000000       0.00000000    
 C   0.00000000       0.00000000       0.00000000       0.00000000    
           2

 O   35.7534676       0.00000000       0.00000000       0.00000000    
 C   0.00000000       0.00000000       0.00000000       0.00000000    
           2

 O   36.1981735       0.00000000       0.00000000       0.00000000    
 C   0.00000000       0.00000000       0.00000000       0.00000000    
           2

 O   36.6428795       0.00000000       0.00000000       0.00000000    
 C   0.00000000       0.00000000       0.00000000       0.00000000    
           2

 O   37.0875854       0.00000000       0.00000000       0.00000000    
 C   0.00000000       0.00000000       0.00000000       0.00000000    
           2

 O   37.5322914       0.00000000       0.00000000       0.00000000    
 C   0.00000000       0.00000000       0.00000000       0.00000000    
           2

 O   37.9769974       0.00000000       0.00000000       0.00000000    
 C   0.00000000       0.00000000       0.00000000       0.00000000    
           2

 O   38.4217033       0.00000000       0.00000000       0.00000000    
 C   0.00000000       0.00000000       0.00000000       0.00000000    
           2

 O   38.8664093       0.00000000       0.00000000       0.00000000    
 C   0.00000000       0.00000000       0.00000000       0.00000000    
           2

 O   39.3111153       0.00000000       0.00000000       0.00000000    
 C   0.00000000       0.00000000       0.00000000       0.00000000    
           2

 O   39.7558212       0.00000000       0.00000000       0.00000000    
 C   0.00000000       0.00000000       0.00000000       0.00000000    
           2

 O   40.2005272       0.00000000       0.00000000       0.00000000    
 C   0.00000000       0.00000000       0.00000000       0.00000000    
           2

 O   40.6452332       0.00000000       0.00000000       0.00000000    
 C   0.00000000       0.00000000       0.00000000       0.00000000    
           2

 O   41.0899391       0.00000000       0.00000000       0.00000000    
 C   0.00000000       0.00000000       0.00000000       0.00000000    
           2

 O   41.5346451       0.00000000       0.00000000       0.00000000    
 C   0.00000000       0.00000000       0.00000000       0.00000000    
           2

 O   41.9793510       0.00000000       0.00000000       0.00000000    
 C   0.00000000       0.00000000       0.00000000       0.00000000    
           2

 O   42.4240570       0.00000000       0.00000000       0.00000000    
 C   0.00000000       0.00000000       0.00000000       0.00000000    
           2

 O   42.8687630       0.00000000       0.00000000       0.00000000    
 C   0.00000000       0.00000000       0.00000000       0.00000000    
           2

 O   43.3134689       0.00000000       0.00000000       0.00000000    
 C   0.00000000       0.00000000       0.00000000       0.00000000    
           2

 O   43.7581749       0.00000000       0.00000000       0.00000000    
 C   0.00000000       0.00000000       0.00000000       0.00000000    
           2

 O   44.2028809       0.00000000       0.00000000       0.00000000    
 C   0.00000000       0.00000000       0.00000000       0.00000000    
           2

 O   44.6475868       0.00000000       0.00000000       0.00000000    
 C   0.00000000       0.00000000       0.00000000       0.00000000    
           2

 O   45.0922928       0.00000000       0.00000000       0.00000000    
 C   0.00000000       0.00000000       0.00000000       0.00000000    
           2

 O   45.5369987       0.00000000       0.00000000       0.00000000    
 C   0.00000000       0.00000000       0.00000000       0.00000000    
           2

 O   45.9817047       0.00000000       0.00000000       0.00000000    
 C   0.00000000       0.00000000       0.00000000       0.00000000    
           2

 O   46.4264107       0.00000000       0.00000000       0.00000000    
 C   0.00000000       0.00000000       0.00000000       0.00000000    
           2

 O   46.8711166       0.00000000       0.00000000       0.00000000    
 C   0.00000000       0.00000000       0.00000000       0.00000000    
           2

 O   47.3158226       0.00000000       0.00000000       0.00000000    
 C   0.00000000       0.00000000       0.00000000       0.00000000    
           2

 O   47.7605286       0.00000000       0.00000000       0.00000000    
 C   0.00000000       0.00000000       0.00000000       0.00000000    
           2

 O   48.2052345       0.00000000       0.00000000       0.00000000    
 C   0.00000000       0.00000000       0.00000000       0.00000000    
           2

 O   48.6499405       0.00000000       0.00000000       0.00000000    
 C   0.00000000       0.00000000       0.00000000       0.00000000    
           2

 O   49.0946465       0.00000000       0.00000000       0.00000000    
 C   0.00000000       0.00000000       0.00000000       0.00000000    
           2

 O   49.5393524       0.00000000       0.00000000       0.00000000    
 C   0.00000000       0.00000000       0.00000000       0.00000000    
           2

 O   49.9840584       0.00000000       0.00000000       0.00000000    
 C   0.00000000       0.00000000       0.00000000       0.00000000    
           2

 O   50.4287643       0.00000000       0.00000000       0.00000000    
 C   0.00000000       0.00000000       0.00000000       0.00000000    
           2

 O   50.8734703       0.00000000       0.00000000       0.00000000    
 C   0.00000000       0.00000000       0.00000000       0.00000000    
           2

 O   51.3181763       0.00000000       0.00000000       0.00000000    
 C   0.00000000       0.00000000       0.00000000       0.00000000    
           2

 O   51.7628822       0.00000000       0.00000000       0.00000000    
 C   0.00000000       0.00000000       0.00000000       0.00000000    
           2

 O   52.2075882       0.00000000       0.00000000       0.00000000    
 C   0.00000000       0.00000000       0.00000000       0.00000000    
           2

 O   52.6522942       0.00000000       0.00000000       0.00000000    
 C   0.00000000       0.00000000       0.00000000       0.00000000    
           2

 O   53.0970001       0.00000000       0.00000000       0.00000000    
 C   0.00000000       0.00000000       0.00000000       0.00000000    
           2

 O   53.5417061       0.00000000       0.00000000       0.00000000    
 C   0.00000000       0.00000000       0.00000000       0.00000000    
           2

 O   53.9864120       0.00000000       0.00000000       0.00000000    
 C   0.00000000       0.00000000       0.00000000       0.00000000    
           2

 O   54.4311180       0.00000000       0.00000000       0.00000000    
 C   0.00000000       0.00000000       0.00000000       0.00000000    
           2

 O   54.8758240       0.00000000       0.00000000       0.00000000    
 C   0.00000000       0.00000000       0.00000000       0.00000000    
           2

 O   55.3205299       0.00000000       0.00000000       0.00000000    
 C   0.00000000       0.00000000       0.00000000       0.00000000    
           2

 O   55.7652359       0.00000000       0.00000000       0.00000000    
 C   0.00000000       0.00000000       0.00000000       0.00000000    
           2

 O   56.2099419       0.00000000       0.00000000       0.00000000    
 C   0.00000000       0.00000000       0.00000000       0.00000000    
           2

 O   56.6546478       0.00000000       0.00000000       0.00000000    
 C   0.00000000       0.00000000       0.00000000       0.00000000    
           2

 O   57.0993538       0.00000000       0.00000000       0.00000000    
 C   0.00000000       0.00000000       0.00000000       0.00000000    
           2

 O   57.5440598       0.00000000       0.00000000       0.00000000    
 C   0.00000000       0.00000000       0.00000000       0.00000000    
           2

 O   57.9887657       0.00000000       0.00000000       0.00000000    
 C   0.00000000       0.00000000       0.00000000       0.00000000    
           2

 O   58.4334717       0.00000000       0.00000000       0.00000000    
 C   0.00000000       0.00000000       0.00000000       0.00000000    
           2

 O   58.8781776       0.00000000       0.00000000       0.00000000    
 C   0.00000000       0.00000000       0.00000000       0.00000000    
           2

 O   59.3228836       0.00000000       0.00000000       0.00000000    
 C   0.00000000       0.00000000       0.00000000       0.00000000    
           2

 O   59.7675896       0.00000000       0.00000000       0.00000000    
 C   0.00000000       0.00000000       0.00000000       0.00000000    
           2

 O   60.2122955       0.00000000       0.00000000       0.00000000    
 C   0.00000000       0.00000000       0.00000000       0.00000000    
           2

 O   60.6570015       0.00000000       0.00000000       0.00000000    
 C   0.00000000       0.00000000       0.00000000       0.00000000    
           2

 O   61.1017075       0.00000000       0.00000000       0.00000000    
 C   0.00000000       0.00000000       0.00000000       0.00000000    
           2

 O   61.5464134       0.00000000       0.00000000       0.00000000    
 C   0.00000000       0.00000000       0.00000000       0.00000000    
           2

 O   61.9911194       0.00000000       0.00000000       0.00000000    
 C   0.00000000       0.00000000       0.00000000       0.00000000    
           2

 O   62.4358253       0.00000000       0.00000000       0.00000000    
 C   0.00000000       0.00000000       0.00000000       0.00000000    
           2

 O   62.8805313       0.00000000       0.00000000       0.00000000    
 C   0.00000000       0.00000000       0.00000000       0.00000000    
           2

 O   63.3252373       0.00000000       0.00000000       0.00000000    
 C   0.00000000       0.00000000       0.00000000       0.00000000    
           2

 O   63.7699432       0.00000000       0.00000000       0.00000000    
 C   0.00000000       0.00000000       0.00000000       0.00000000    
           2

 O   64.2146530       0.00000000       0.00000000       0.00000000    
 C   0.00000000       0.00000000       0.00000000       0.00000000    
           2

 O   64.6593628       0.00000000       0.00000000       0.00000000    
 C   0.00000000       0.00000000       0.00000000       0.00000000    
           2

 O   65.1040726       0.00000000       0.00000000       0.00000000    
 C   0.00000000       0.00000000       0.00000000       0.00000000    
           2

 O   65.5487823       0.00000000       0.00000000       0.00000000    
 C   0.00000000       0.00000000       0.00000000       0.00000000    
           2

 O   65.9934921       0.00000000       0.00000000       0.00000000    
 C   0.00000000       0.00000000       0.00000000       0.00000000    
           2

 O   66.4382019       0.00000000       0.00000000       0.00000000    
 C   0.00000000       0.00000000       0.00000000       0.00000000    
           2

 O   66.8829117       0.00000000       0.00000000       0.00000000    
 C   0.00000000       0.00000000       0.00000000       0.00000000    
           2

 O   67.3276215       0.00000000       0.00000000       0.00000000    
 C   0.00000000       0.00000000       0.00000000       0.00000000    
           2

 O   67.7723312       0.00000000       0.00000000       0.00000000    
 C   0.00000000       0.00000000       0.00000000       0.00000000    
           2

 O   68.2170410       0.00000000       0.00000000       0.00000000    
 C   0.00000000       0.00000000       0.00000000       0.00000000    
           2

 O   68.6617508       0.00000000       0.00000000       0.00000000    
 C   0.00000000       0.00000000       0.00000000       0.00000000    
           2

 O   69.1064606       0.00000000       0.00000000       0.00000000    
 C   0.00000000       0.00000000       0.00000000       0.00000000    
           2

 O   69.5511703       0.00000000       0.00000000       0.00000000    
 C   0.00000000       0.00000000       0.00000000       0.00000000    
           2

 O   69.9958801       0.00000000       0.00000000       0.00000000    
 C   0.00000000       0.00000000       0.00000000       0.00000000    
           2

 O   70.4405899       0.00000000       0.00000000       0.00000000    
 C   0.00000000       0.00000000       0.00000000       0.00000000    
           2

 O   70.8852997       0.00000000       0.00000000       0.00000000    
 C   0.00000000       0.00000000       0.00000000       0.00000000    
           2

 O   71.3300095       0.00000000       0.00000000       0.00000000    
 C   0.00000000       0.00000000       0.00000000       0.00000000    
           2

 O   71.7747192       0.00000000       0.00000000       0.00000000    
 C   0.00000000       0.00000000       0.00000000       0.00000000    
           2

 O   72.2194290       0.00000000       0.00000000       0.00000000    
 C   0.00000000       0.00000000       0.00000000       0.00000000    
           2

 O   72.6641388       0.00000000       0.00000000       0.00000000    
 C   0.00000000       0.00000000       0.00000000       0.00000000    
           2

 O   73.1088486       0.00000000       0.00000000       0.00000000    
 C   0.00000000       0.00000000       0.00000000       0.00000000    
           2

 O   73.5535583       0.00000000       0.00000000       0.00000000    
 C   0.00000000       0.00000000       0.00000000       0.00000000    
           2

 O   73.9982681       0.00000000       0.00000000       0.00000000    
 C   0.00000000       0.00000000       0.00000000       0.00000000    
           2

 O   74.4429779       0.00000000       0.00000000       0.00000000    
 C   0.00000000       0.00000000       0.00000000       0.00000000    
           2

 O   74.8876877       0.00000000       0.00000000       0.00000000    
 C   0.00000000       0.00000000       0.00000000       0.00000000    
           2

 O   75.3323975       0.00000000       0.00000000       0.00000000    
 C   0.00000000       0.00000000       0.00000000       0.00000000    
           2

 O   75.7771072       0.00000000       0.00000000       0.00000000    
 C   0.00000000       0.00000000       0.00000000       0.00000000    
           2

 O   76.2218170       0.00000000       0.00000000       0.00000000    
 C   0.00000000       0.00000000       0.00000000       0.00000000    
           2

 O   76.6665268       0.00000000       0.00000000       0.00000000    
 C   0.00000000       0.00000000       0.00000000       0.00000000    
           2

 O   77.1112366       0.00000000       0.00000000       0.00000000    
 C   0.00000000       0.00000000       0.00000000       0.00000000    
           2

 O   77.5559464       0.00000000       0.00000000       0.00000000    
 C   0.00000000       0.00000000       0.00000000       0.00000000    
           2

 O   78.0006561       0.00000000       0.00000000       0.00000000    
 C   0.00000000       0.00000000       0.00000000       0.00000000    
           2

 O   78.4453659       0.00000000       0.00000000       0.00000000    
 C   0.00000000       0.00000000       0.00000000       0.00000000    
           2

 O   78.8900757       0.00000000       0.00000000       0.00000000    
 C   0.00000000       0.00000000       0.00000000       0.00000000    
           2

 O   79.3347855       0.00000000       0.00000000       0.00000000    
 C   0.00000000       0.00000000       0.00000000       0.00000000    
           2

 O   79.7794952       0.00000000       0.00000000       0.00000000    
 C   0.00000000       0.00000000       0.00000000       0.00000000    
           2

 O   80.2242050       0.00000000       0.00000000       0.00000000    
 C   0.00000000       0.00000000       0.00000000       0.00000000    
           2

 O   80.6689148       0.00000000       0.00000000       0.00000000    
 C   0.00000000       0.00000000       0.00000000       0.00000000    
           2

 O   81.1136246       0.00000000       0.00000000       0.00000000    
 C   0.00000000       0.00000000       0.00000000       0.00000000    
           2

 O   81.5583344       0.00000000       0.00000000       0.00000000    
 C   0.00000000       0.00000000       0.00000000       0.00000000    
           2

 O   82.0030441       0.00000000       0.00000000       0.00000000    
 C   0.00000000       0.00000000       0.00000000       0.00000000    
           2

 O   82.4477539       0.00000000       0.00000000       0.00000000    
 C   0.00000000       0.00000000       0.00000000       0.00000000    
           2

 O   82.8924637       0.00000000       0.00000000       0.00000000    
 C   0.00000000       0.00000000       0.00000000       0.00000000    
           2

 O   83.3371735       0.00000000       0.00000000       0.00000000    
 C   0.00000000       0.00000000       0.00000000       0.00000000    
           2

 O   83.7818832       0.00000000       0.00000000       0.00000000    
 C   0.00000000       0.00000000       0.00000000       0.00000000    
           2

 O   84.2265930       0.00000000       0.00000000       0.00000000    
 C   0.00000000       0.00000000       0.00000000       0.00000000    
           2

 O   84.6713028       0.00000000       0.00000000       0.00000000    
 C   0.00000000       0.00000000       0.00000000       0.00000000    
           2

 O   85.1160126       0.00000000       0.00000000       0.00000000    
 C   0.00000000       0.00000000       0.00000000       0.00000000    
           2

 O   85.5607224       0.00000000       0.00000000       0.00000000    
 C   0.00000000       0.00000000       0.00000000       0.00000000    
           2

 O   86.0054321       0.00000000       0.00000000       0.00000000    
 C   0.00000000       0.00000000       0.00000000       0.00000000    
           2

 O   86.4501419       0.00000000       0.00000000       0.00000000    
 C   0.00000000       0.00000000       0.00000000       0.00000000    
           2

 O   86.8948517       0.00000000       0.00000000       0.00000000    
 C   0.00000000       0.00000000       0.00000000       0.00000000    
           2

 O   87.3395615       0.00000000       0.00000000       0.00000000    
 C   0.00000000       0.00000000       0.00000000       0.00000000    
           2

 O   87.7842712       0.00000000       0.00000000       0.00000000    
 C   0.00000000       0.00000000       0.00000000       0.00000000    
           2

 O   88.2289810       0.00000000       0.00000000       0.00000000    
 C   0.00000000       0.00000000       0.00000000       0.00000000    
           2

 O   88.6736908       0.00000000       0.00000000       0.00000000    
 C   0.00000000       0.00000000       0.00000000       0.00000000    
           2

 O   89.1184006       0.00000000       0.00000000       0.00000000    
 C   0.00000000       0.00000000       0.00000000       0.00000000    
           2

 O   89.5631104       0.00000000       0.00000000       0.00000000    
 C   0.00000000       0.00000000       0.00000000       0.00000000    
           2

 O   90.0078201       0.00000000       0.00000000       0.00000000    
 C   0.00000000       0.00000000       0.00000000       0.00000000    
           2

 O   90.4525299       0.00000000       0.00000000       0.00000000    
 C   0.00000000       0.00000000       0.00000000       0.00000000    
           2

 O   90.8972397       0.00000000       0.00000000       0.00000000    
 C   0.00000000       0.00000000       0.00000000       0.00000000    
           2

 O   91.3419495       0.00000000       0.00000000       0.00000000    
 C   0.00000000       0.00000000       0.00000000       0.00000000    
           2

 O   91.7866592       0.00000000       0.00000000       0.00000000    
 C   0.00000000       0.00000000       0.00000000       0.00000000    
           2

 O   92.2313690       0.00000000       0.00000000       0.00000000    
 C   0.00000000       0.00000000       0.00000000       0.00000000    
           2

 O   92.6760788       0.00000000       0.00000000       0.00000000    
 C   0.00000000       0.00000000       0.00000000       0.00000000    
           2

 O   93.1207886       0.00000000       0.00000000       0.00000000    
 C   0.00000000       0.00000000       0.00000000       0.00000000    
           2

 O   93.5654984       0.00000000       0.00000000       0.00000000    
 C   0.00000000       0.00000000       0.00000000       0.00000000    
           2

 O   94.0102081       0.00000000       0.00000000       0.00000000    
 C   0.00000000       0.00000000       0.00000000       0.00000000    
           2

 O   94.4549179       0.00000000       0.00000000       0.00000000    
 C   0.00000000       0.00000000       0.00000000       0.00000000    
           2

 O   94.8996277       0.00000000       0.00000000       0.00000000    
 C   0.00000000       0.00000000       0.00000000       0.00000000    
           2

 O   95.3443375       0.00000000       0.00000000       0.00000000    
 C   0.00000000       0.00000000       0.00000000       0.00000000    
           2

 O   95.7890472       0.00000000       0.00000000       0.00000000    
 C   0.00000000       0.00000000       0.00000000       0.00000000    
           2

 O   96.2337570       0.00000000       0.00000000       0.00000000    
 C   0.00000000       0.00000000       0.00000000       0.00000000    
           2

 O   96.6784668       0.00000000       0.00000000       0.00000000    
 C   0.00000000       0.00000000       0.00000000       0.00000000    
           2

 O   97.1231766       0.00000000       0.00000000       0.00000000    
 C   0.00000000       0.00000000       0.00000000       0.00000000    
           2

 O   97.5678864       0.00000000       0.00000000       0.00000000    
 C   0.00000000       0.00000000       0.00000000       0.00000000    
           2

 O   98.0125961       0.00000000       0.00000000       0.00000000    
 C   0.00000000       0.00000000       0.00000000       0.00000000    
           2

 O   98.4573059       0.00000000       0.00000000       0.00000000    
 C   0.00000000       0.00000000       0.00000000       0.00000000    
           2

 O   98.9020157       0.00000000       0.00000000       0.00000000    
 C   0.00000000       0.00000000       0.00000000       0.00000000    
           2

 O   99.3467255       0.00000000       0.00000000       0.00000000    
 C   0.00000000       0.00000000       0.00000000       0.00000000    
           2

 O   99.7914352       0.00000000       0.00000000       0.00000000    
 C   0.00000000       0.00000000       0.00000000       0.00000000    
           2

 O   100.236145       0.00000000       0.00000000       0.00000000    
 C   0.00000000       0.00000000       0.00000000       0.00000000    
           2

 O   100.680855       0.00000000       0.00000000       0.00000000    
 C   0.00000000       0.00000000       0.00000000       0.00000000    
           2

 O   101.125565       0.00000000       0.00000000       0.00000000    
 C   0.00000000       0.00000000       0.00000000       0.00000000    
           2

 O   101.570274       0.00000000       0.00000000       0.00000000    
 C   0.00000000       0.00000000       0.00000000       0.00000000    
           2

 O   102.014984       0.00000000       0.00000000       0.00000000    
 C   0.00000000       0.00000000       0.00000000       0.00000000    
           2

 O   102.459694       0.00000000       0.00000000       0.00000000    
 C   0.00000000       0.00000000       0.00000000       0.00000000    
           2

 O   102.904404       0.00000000       0.00000000       0.00000000    
 C   0.00000000       0.00000000       0.00000000       0.00000000    
           2

 O   103.349113       0.00000000       0.00000000       0.00000000    
 C   0.00000000       0.00000000       0.00000000       0.00000000    
           2

 O   103.793823       0.00000000       0.00000000       0.00000000    
 C   0.00000000       0.00000000       0.00000000       0.00000000    
           2

 O   104.238533       0.00000000       0.00000000       0.00000000    
 C   0.00000000       0.00000000       0.00000000       0.00000000    
           2

 O   104.683243       0.00000000       0.00000000       0.00000000    
 C   0.00000000       0.00000000       0.00000000       0.00000000    
           2

 O   105.127953       0.00000000       0.00000000       0.00000000    
 C   0.00000000       0.00000000       0.00000000       0.00000000    
           2

 O   105.572662       0.00000000       0.00000000       0.00000000    
 C   0.00000000       0.00000000       0.00000000       0.00000000    
           2

 O   106.017372       0.00000000       0.00000000       0.00000000    
 C   0.00000000       0.00000000       0.00000000       0.00000000    
           2

 O   106.462082       0.00000000       0.00000000       0.00000000    
 C   0.00000000       0.00000000       0.00000000       0.00000000    
           2

 O   106.906792       0.00000000       0.00000000       0.00000000    
 C   0.00000000       0.00000000       0.00000000       0.00000000    
           2

 O   107.351501       0.00000000       0.00000000       0.00000000    
 C   0.00000000       0.00000000       0.00000000       0.00000000    
           2

 O   107.796211       0.00000000       0.00000000       0.00000000    
 C   0.00000000       0.00000000       0.00000000       0.00000000    
           2

 O   108.240921       0.00000000       0.00000000       0.00000000    
 C   0.00000000       0.00000000       0.00000000       0.00000000    
           2

 O   108.685631       0.00000000       0.00000000       0.00000000    
 C   0.00000000       0.00000000       0.00000000       0.00000000    
           2

 O   109.130341       0.00000000       0.00000000       0.00000000    
 C   0.00000000       0.00000000       0.00000000       0.00000000    
           2

 O   109.575050       0.00000000       0.00000000       0.00000000    
 C   0.00000000       0.00000000       0.00000000       0.00000000    
           2

 O   110.019760       0.00000000       0.00000000       0.00000000    
 C   0.00000000       0.00000000       0.00000000       0.00000000    
           2

 O   110.464470       0.00000000       0.00000000       0.00000000    
 C   0.00000000       0.00000000       0.00000000       0.00000000    
           2

 O   110.909180       0.00000000       0.00000000       0.00000000    
 C   0.00000000       0.00000000       0.00000000       0.00000000    
           2

 O   111.353889       0.00000000       0.00000000       0.00000000    
 C   0.00000000       0.00000000       0.00000000       0.00000000    
           2

 O   111.798599       0.00000000       0.00000000       0.00000000    
 C   0.00000000       0.00000000       0.00000000       0.00000000    
           2

 O   112.243309       0.00000000       0.00000000       0.00000000    
 C   0.00000000       0.00000000       0.00000000       0.00000000    
           2

 O   112.688019       0.00000000       0.00000000       0.00000000    
 C   0.00000000       0.00000000       0.00000000       0.00000000    
           2

 O   113.132729       0.00000000       0.00000000       0.00000000    
 C   0.00000000       0.00000000       0.00000000       0.00000000    
           2

 O   113.577438       0.00000000       0.00000000       0.00000000    
 C   0.00000000       0.00000000       0.00000000       0.00000000    
           2

 O   114.022148       0.00000000       0.00000000       0.00000000    
 C   0.00000000       0.00000000       0.00000000       0.00000000    
           2

 O   114.466858       0.00000000       0.00000000       0.00000000    
 C   0.00000000       0.00000000       0.00000000       0.00000000    
