           2

 O   3.00000000       0.00000000       0.00000000       0.00000000    
 C   0.00000000       0.00000000       0.00000000       0.00000000    
           2

 O   2.78741431       0.00000000       0.00000000       0.00000000    
 C   0.00000000       0.00000000       0.00000000       0.00000000    
           2

 O   2.36224294       0.00000000       0.00000000       0.00000000    
 C   0.00000000       0.00000000       0.00000000       0.00000000    
           2

 O   1.72659326       0.00000000       0.00000000       0.00000000    
 C   0.00000000       0.00000000       0.00000000       0.00000000    
           2

 O   1.01656389       0.00000000       0.00000000       0.00000000    
 C   0.00000000       0.00000000       0.00000000       0.00000000    
           2

 O   1.55576873       0.00000000       0.00000000       0.00000000    
 C   0.00000000       0.00000000       0.00000000       0.00000000    
           2

 O   11.8677588       0.00000000       0.00000000       0.00000000    
 C   0.00000000       0.00000000       0.00000000       0.00000000    
           2

 O   24.3730545       0.00000000       0.00000000       0.00000000    
 C   0.00000000       0.00000000       0.00000000       0.00000000    
           2

 O   36.8783226       0.00000000       0.00000000       0.00000000    
 C   0.00000000       0.00000000       0.00000000       0.00000000    
           2

 O   49.3835907       0.00000000       0.00000000       0.00000000    
 C   0.00000000       0.00000000       0.00000000       0.00000000    
           2

 O   61.8888588       0.00000000       0.00000000       0.00000000    
 C   0.00000000       0.00000000       0.00000000       0.00000000    
           2

 O   74.3941269       0.00000000       0.00000000       0.00000000    
 C   0.00000000       0.00000000       0.00000000       0.00000000    
           2

 O   86.8993988       0.00000000       0.00000000       0.00000000    
 C   0.00000000       0.00000000       0.00000000       0.00000000    
           2

 O   99.4046707       0.00000000       0.00000000       0.00000000    
 C   0.00000000       0.00000000       0.00000000       0.00000000    
           2

 O   111.909943       0.00000000       0.00000000       0.00000000    
 C   0.00000000       0.00000000       0.00000000       0.00000000    
           2

 O   124.415215       0.00000000       0.00000000       0.00000000    
 C   0.00000000       0.00000000       0.00000000       0.00000000    
           2

 O   136.920486       0.00000000       0.00000000       0.00000000    
 C   0.00000000       0.00000000       0.00000000       0.00000000    
           2

 O   149.425751       0.00000000       0.00000000       0.00000000    
 C   0.00000000       0.00000000       0.00000000       0.00000000    
           2

 O   161.931015       0.00000000       0.00000000       0.00000000    
 C   0.00000000       0.00000000       0.00000000       0.00000000    
           2

 O   174.436279       0.00000000       0.00000000       0.00000000    
 C   0.00000000       0.00000000       0.00000000       0.00000000    
           2

 O   186.941544       0.00000000       0.00000000       0.00000000    
 C   0.00000000       0.00000000       0.00000000       0.00000000    
           2

 O   199.446808       0.00000000       0.00000000       0.00000000    
 C   0.00000000       0.00000000       0.00000000       0.00000000    
           2

 O   211.952072       0.00000000       0.00000000       0.00000000    
 C   0.00000000       0.00000000       0.00000000       0.00000000    
           2

 O   224.457336       0.00000000       0.00000000       0.00000000    
 C   0.00000000       0.00000000       0.00000000       0.00000000    
           2

 O   236.962601       0.00000000       0.00000000       0.00000000    
 C   0.00000000       0.00000000       0.00000000       0.00000000    
           2

 O   249.467865       0.00000000       0.00000000       0.00000000    
 C   0.00000000       0.00000000       0.00000000       0.00000000    
           2

 O   261.973145       0.00000000       0.00000000       0.00000000    
 C   0.00000000       0.00000000       0.00000000       0.00000000    
           2

 O   274.478424       0.00000000       0.00000000       0.00000000    
 C   0.00000000       0.00000000       0.00000000       0.00000000    
           2

 O   286.983704       0.00000000       0.00000000       0.00000000    
 C   0.00000000       0.00000000       0.00000000       0.00000000    
           2

 O   299.488983       0.00000000       0.00000000       0.00000000    
 C   0.00000000       0.00000000       0.00000000       0.00000000    
           2

 O   311.994263       0.00000000       0.00000000       0.00000000    
 C   0.00000000       0.00000000       0.00000000       0.00000000    
           2

 O   324.499542       0.00000000       0.00000000       0.00000000    
 C   0.00000000       0.00000000       0.00000000       0.00000000    
           2

 O   337.004822       0.00000000       0.00000000       0.00000000    
 C   0.00000000       0.00000000       0.00000000       0.00000000    
           2

 O   349.510101       0.00000000       0.00000000       0.00000000    
 C   0.00000000       0.00000000       0.00000000       0.00000000    
           2

 O   362.015381       0.00000000       0.00000000       0.00000000    
 C   0.00000000       0.00000000       0.00000000       0.00000000    
           2

 O   374.520660       0.00000000       0.00000000       0.00000000    
 C   0.00000000       0.00000000       0.00000000       0.00000000    
           2

 O   387.025940       0.00000000       0.00000000       0.00000000    
 C   0.00000000       0.00000000       0.00000000       0.00000000    
           2

 O   399.531219       0.00000000       0.00000000       0.00000000    
 C   0.00000000       0.00000000       0.00000000       0.00000000    
           2

 O   412.036499       0.00000000       0.00000000       0.00000000    
 C   0.00000000       0.00000000       0.00000000       0.00000000    
           2

 O   424.541779       0.00000000       0.00000000       0.00000000    
 C   0.00000000       0.00000000       0.00000000       0.00000000    
           2

 O   437.047058       0.00000000       0.00000000       0.00000000    
 C   0.00000000       0.00000000       0.00000000       0.00000000    
           2

 O   449.552338       0.00000000       0.00000000       0.00000000    
 C   0.00000000       0.00000000       0.00000000       0.00000000    
           2

 O   462.057617       0.00000000       0.00000000       0.00000000    
 C   0.00000000       0.00000000       0.00000000       0.00000000    
           2

 O   474.562897       0.00000000       0.00000000       0.00000000    
 C   0.00000000       0.00000000       0.00000000       0.00000000    
           2

 O   487.068176       0.00000000       0.00000000       0.00000000    
 C   0.00000000       0.00000000       0.00000000       0.00000000    
           2

 O   499.573456       0.00000000       0.00000000       0.00000000    
 C   0.00000000       0.00000000       0.00000000       0.00000000    
           2

 O   512.078735       0.00000000       0.00000000       0.00000000    
 C   0.00000000       0.00000000       0.00000000       0.00000000    
           2

 O   524.583984       0.00000000       0.00000000       0.00000000    
 C   0.00000000       0.00000000       0.00000000       0.00000000    
           2

 O   537.089233       0.00000000       0.00000000       0.00000000    
 C   0.00000000       0.00000000       0.00000000       0.00000000    
           2

 O   549.594482       0.00000000       0.00000000       0.00000000    
 C   0.00000000       0.00000000       0.00000000       0.00000000    
           2

 O   562.099731       0.00000000       0.00000000       0.00000000    
 C   0.00000000       0.00000000       0.00000000       0.00000000    
           2

 O   574.604980       0.00000000       0.00000000       0.00000000    
 C   0.00000000       0.00000000       0.00000000       0.00000000    
           2

 O   587.110229       0.00000000       0.00000000       0.00000000    
 C   0.00000000       0.00000000       0.00000000       0.00000000    
           2

 O   599.615479       0.00000000       0.00000000       0.00000000    
 C   0.00000000       0.00000000       0.00000000       0.00000000    
           2

 O   612.120728       0.00000000       0.00000000       0.00000000    
 C   0.00000000       0.00000000       0.00000000       0.00000000    
           2

 O   624.625977       0.00000000       0.00000000       0.00000000    
 C   0.00000000       0.00000000       0.00000000       0.00000000    
           2

 O   637.131226       0.00000000       0.00000000       0.00000000    
 C   0.00000000       0.00000000       0.00000000       0.00000000    
           2

 O   649.636475       0.00000000       0.00000000       0.00000000    
 C   0.00000000       0.00000000       0.00000000       0.00000000    
           2

 O   662.141724       0.00000000       0.00000000       0.00000000    
 C   0.00000000       0.00000000       0.00000000       0.00000000    
           2

 O   674.646973       0.00000000       0.00000000       0.00000000    
 C   0.00000000       0.00000000       0.00000000       0.00000000    
           2

 O   687.152222       0.00000000       0.00000000       0.00000000    
 C   0.00000000       0.00000000       0.00000000       0.00000000    
           2

 O   699.657471       0.00000000       0.00000000       0.00000000    
 C   0.00000000       0.00000000       0.00000000       0.00000000    
           2

 O   712.162720       0.00000000       0.00000000       0.00000000    
 C   0.00000000       0.00000000       0.00000000       0.00000000    
           2

 O   724.667969       0.00000000       0.00000000       0.00000000    
 C   0.00000000       0.00000000       0.00000000       0.00000000    
           2

 O   737.173218       0.00000000       0.00000000       0.00000000    
 C   0.00000000       0.00000000       0.00000000       0.00000000    
           2

 O   749.678467       0.00000000       0.00000000       0.00000000    
 C   0.00000000       0.00000000       0.00000000       0.00000000    
           2

 O   762.183716       0.00000000       0.00000000       0.00000000    
 C   0.00000000       0.00000000       0.00000000       0.00000000    
           2

 O   774.688965       0.00000000       0.00000000       0.00000000    
 C   0.00000000       0.00000000       0.00000000       0.00000000    
           2

 O   787.194214       0.00000000       0.00000000       0.00000000    
 C   0.00000000       0.00000000       0.00000000       0.00000000    
           2

 O   799.699463       0.00000000       0.00000000       0.00000000    
 C   0.00000000       0.00000000       0.00000000       0.00000000    
           2

 O   812.204712       0.00000000       0.00000000       0.00000000    
 C   0.00000000       0.00000000       0.00000000       0.00000000    
           2

 O   824.709961       0.00000000       0.00000000       0.00000000    
 C   0.00000000       0.00000000       0.00000000       0.00000000    
           2

 O   837.215210       0.00000000       0.00000000       0.00000000    
 C   0.00000000       0.00000000       0.00000000       0.00000000    
           2

 O   849.720459       0.00000000       0.00000000       0.00000000    
 C   0.00000000       0.00000000       0.00000000       0.00000000    
           2

 O   862.225708       0.00000000       0.00000000       0.00000000    
 C   0.00000000       0.00000000       0.00000000       0.00000000    
           2

 O   874.730957       0.00000000       0.00000000       0.00000000    
 C   0.00000000       0.00000000       0.00000000       0.00000000    
           2

 O   887.236206       0.00000000       0.00000000       0.00000000    
 C   0.00000000       0.00000000       0.00000000       0.00000000    
           2

 O   899.741455       0.00000000       0.00000000       0.00000000    
 C   0.00000000       0.00000000       0.00000000       0.00000000    
           2

 O   912.246704       0.00000000       0.00000000       0.00000000    
 C   0.00000000       0.00000000       0.00000000       0.00000000    
           2

 O   924.751953       0.00000000       0.00000000       0.00000000    
 C   0.00000000       0.00000000       0.00000000       0.00000000    
           2

 O   937.257202       0.00000000       0.00000000       0.00000000    
 C   0.00000000       0.00000000       0.00000000       0.00000000    
           2

 O   949.762451       0.00000000       0.00000000       0.00000000    
 C   0.00000000       0.00000000       0.00000000       0.00000000    
           2

 O   962.267700       0.00000000       0.00000000       0.00000000    
 C   0.00000000       0.00000000       0.00000000       0.00000000    
           2

 O   974.772949       0.00000000       0.00000000       0.00000000    
 C   0.00000000       0.00000000       0.00000000       0.00000000    
           2

 O   987.278198       0.00000000       0.00000000       0.00000000    
 C   0.00000000       0.00000000       0.00000000       0.00000000    
           2

 O   999.783447       0.00000000       0.00000000       0.00000000    
 C   0.00000000       0.00000000       0.00000000       0.00000000    
           2

 O   1012.28870       0.00000000       0.00000000       0.00000000    
 C   0.00000000       0.00000000       0.00000000       0.00000000    
           2

 O   1024.79395       0.00000000       0.00000000       0.00000000    
 C   0.00000000       0.00000000       0.00000000       0.00000000    
           2

 O   1037.29919       0.00000000       0.00000000       0.00000000    
 C   0.00000000       0.00000000       0.00000000       0.00000000    
           2

 O   1049.80444       0.00000000       0.00000000       0.00000000    
 C   0.00000000       0.00000000       0.00000000       0.00000000    
           2

 O   1062.30969       0.00000000       0.00000000       0.00000000    
 C   0.00000000       0.00000000       0.00000000       0.00000000    
           2

 O   1074.81494       0.00000000       0.00000000       0.00000000    
 C   0.00000000       0.00000000       0.00000000       0.00000000    
           2

 O   1087.32019       0.00000000       0.00000000       0.00000000    
 C   0.00000000       0.00000000       0.00000000       0.00000000    
           2

 O   1099.82544       0.00000000       0.00000000       0.00000000    
 C   0.00000000       0.00000000       0.00000000       0.00000000    
           2

 O   1112.33069       0.00000000       0.00000000       0.00000000    
 C   0.00000000       0.00000000       0.00000000       0.00000000    
           2

 O   1124.83594       0.00000000       0.00000000       0.00000000    
 C   0.00000000       0.00000000       0.00000000       0.00000000    
           2

 O   1137.34119       0.00000000       0.00000000       0.00000000    
 C   0.00000000       0.00000000       0.00000000       0.00000000    
           2

 O   1149.84644       0.00000000       0.00000000       0.00000000    
 C   0.00000000       0.00000000       0.00000000       0.00000000    
           2

 O   1162.35168       0.00000000       0.00000000       0.00000000    
 C   0.00000000       0.00000000       0.00000000       0.00000000    
           2

 O   1174.85693       0.00000000       0.00000000       0.00000000    
 C   0.00000000       0.00000000       0.00000000       0.00000000    
