           2

 O   2.99270725       0.00000000       0.00000000       9.71398503E-03
 C   0.00000000       0.00000000       9.71398503E-03   0.00000000    
           2

 O   2.97078490       0.00000000       0.00000000       3.89143601E-02
 C   0.00000000       0.00000000       3.89143601E-02   0.00000000    
           2

 O   2.93415022       0.00000000       0.00000000       8.77115875E-02
 C   0.00000000       0.00000000       8.77115875E-02   0.00000000    
           2

 O   2.88285947       0.00000000       0.00000000      0.156030476    
 C   0.00000000       0.00000000      0.156030476       0.00000000    
           2

 O   2.81753278       0.00000000       0.00000000      0.243045270    
 C   0.00000000       0.00000000      0.243045270       0.00000000    
           2

 O   2.74027324       0.00000000       0.00000000      0.345954478    
 C   0.00000000       0.00000000      0.345954478       0.00000000    
           2

 O   2.65649056       0.00000000       0.00000000      0.457552582    
 C   0.00000000       0.00000000      0.457552582       0.00000000    
           2

 O   2.57779789       0.00000000       0.00000000      0.562370658    
 C   0.00000000       0.00000000      0.562370658       0.00000000    
           2

 O   2.52386403       0.00000000       0.00000000      0.634210229    
 C   0.00000000       0.00000000      0.634210229       0.00000000    
           2

 O   2.51555037       0.00000000       0.00000000      0.645283997    
 C   0.00000000       0.00000000      0.645283997       0.00000000    
           2

 O   2.55676293       0.00000000       0.00000000      0.590389192    
 C   0.00000000       0.00000000      0.590389192       0.00000000    
           2

 O   2.63001657       0.00000000       0.00000000      0.492815673    
 C   0.00000000       0.00000000      0.492815673       0.00000000    
           2

 O   2.71382046       0.00000000       0.00000000      0.381189495    
 C   0.00000000       0.00000000      0.381189495       0.00000000    
           2

 O   2.79398251       0.00000000       0.00000000      0.274414182    
 C   0.00000000       0.00000000      0.274414182       0.00000000    
           2

 O   2.86346006       0.00000000       0.00000000      0.181870401    
 C   0.00000000       0.00000000      0.181870401       0.00000000    
           2

 O   2.91934752       0.00000000       0.00000000      0.107428610    
 C   0.00000000       0.00000000      0.107428610       0.00000000    
           2

 O   2.96068501       0.00000000       0.00000000       5.23673072E-02
 C   0.00000000       0.00000000       5.23673072E-02   0.00000000    
           2

 O   2.98729920       0.00000000       0.00000000       1.69172622E-02
 C   0.00000000       0.00000000       1.69172622E-02   0.00000000    
           2

 O   2.99925661       0.00000000       0.00000000       9.90245491E-04
 C   0.00000000       0.00000000       9.90245491E-04   0.00000000    
           2

 O   2.99662352       0.00000000       0.00000000       4.49761562E-03
 C   0.00000000       0.00000000       4.49761562E-03   0.00000000    
           2

 O   2.97938347       0.00000000       0.00000000       2.74612568E-02
 C   0.00000000       0.00000000       2.74612568E-02   0.00000000    
           2

 O   2.94745421       0.00000000       0.00000000       6.99907243E-02
 C   0.00000000       0.00000000       6.99907243E-02   0.00000000    
           2

 O   2.90081692       0.00000000       0.00000000      0.132111222    
 C   0.00000000       0.00000000      0.132111222       0.00000000    
           2

 O   2.83984232       0.00000000       0.00000000      0.213329181    
 C   0.00000000       0.00000000      0.213329181       0.00000000    
           2

 O   2.76601386       0.00000000       0.00000000      0.311668336    
 C   0.00000000       0.00000000      0.311668336       0.00000000    
           2

 O   2.68341470       0.00000000       0.00000000      0.421689868    
 C   0.00000000       0.00000000      0.421689868       0.00000000    
           2

 O   2.60133171       0.00000000       0.00000000      0.531023800    
 C   0.00000000       0.00000000      0.531023800       0.00000000    
           2

 O   2.53697777       0.00000000       0.00000000      0.616743028    
 C   0.00000000       0.00000000      0.616743028       0.00000000    
           2

 O   2.51248622       0.00000000       0.00000000      0.649365723    
 C   0.00000000       0.00000000      0.649365723       0.00000000    
           2

 O   2.53901291       0.00000000       0.00000000      0.614032388    
 C   0.00000000       0.00000000      0.614032388       0.00000000    
           2

 O   2.60455084       0.00000000       0.00000000      0.526736259    
 C   0.00000000       0.00000000      0.526736259       0.00000000    
           2

 O   2.68693995       0.00000000       0.00000000      0.416994572    
 C   0.00000000       0.00000000      0.416994572       0.00000000    
           2

 O   2.76931167       0.00000000       0.00000000      0.307276011    
 C   0.00000000       0.00000000      0.307276011       0.00000000    
           2

 O   2.84266019       0.00000000       0.00000000      0.209576175    
 C   0.00000000       0.00000000      0.209576175       0.00000000    
           2

 O   2.90305495       0.00000000       0.00000000      0.129130781    
 C   0.00000000       0.00000000      0.129130781       0.00000000    
           2

 O   2.94908142       0.00000000       0.00000000       6.78237826E-02
 C   0.00000000       0.00000000       6.78237826E-02   0.00000000    
           2

 O   2.98039603       0.00000000       0.00000000       2.61128247E-02
 C   0.00000000       0.00000000       2.61128247E-02   0.00000000    
           2

 O   2.99702525       0.00000000       0.00000000       3.96296009E-03
 C   0.00000000       0.00000000       3.96296009E-03   0.00000000    
           2

 O   2.99904990       0.00000000       0.00000000       1.26611535E-03
 C   0.00000000       0.00000000       1.26611535E-03   0.00000000    
           2

 O   2.98648286       0.00000000       0.00000000       1.80054232E-02
 C   0.00000000       0.00000000       1.80054232E-02   0.00000000    
           2

 O   2.95925498       0.00000000       0.00000000       5.42727783E-02
 C   0.00000000       0.00000000       5.42727783E-02   0.00000000    
           2

 O   2.91730380       0.00000000       0.00000000      0.110151410    
 C   0.00000000       0.00000000      0.110151410       0.00000000    
           2

 O   2.86082172       0.00000000       0.00000000      0.185385346    
 C   0.00000000       0.00000000      0.185385346       0.00000000    
           2

 O   2.79082060       0.00000000       0.00000000      0.278626412    
 C   0.00000000       0.00000000      0.278626412       0.00000000    
           2

 O   2.71032667       0.00000000       0.00000000      0.385843843    
 C   0.00000000       0.00000000      0.385843843       0.00000000    
           2

 O   2.62662005       0.00000000       0.00000000      0.497340679    
 C   0.00000000       0.00000000      0.497340679       0.00000000    
           2

 O   2.55424118       0.00000000       0.00000000      0.593749106    
 C   0.00000000       0.00000000      0.593749106       0.00000000    
           2

 O   2.51484561       0.00000000       0.00000000      0.646223664    
 C   0.00000000       0.00000000      0.646223664       0.00000000    
           2

 O   2.52531719       0.00000000       0.00000000      0.632275641    
 C   0.00000000       0.00000000      0.632275641       0.00000000    
           2

 O   2.58074713       0.00000000       0.00000000      0.558443189    
 C   0.00000000       0.00000000      0.558443189       0.00000000    
           2

 O   2.65999317       0.00000000       0.00000000      0.452887893    
 C   0.00000000       0.00000000      0.452887893       0.00000000    
           2

 O   2.74368191       0.00000000       0.00000000      0.341415107    
 C   0.00000000       0.00000000      0.341415107       0.00000000    
           2

 O   2.82052016       0.00000000       0.00000000      0.239067033    
 C   0.00000000       0.00000000      0.239067033       0.00000000    
           2

 O   2.88528848       0.00000000       0.00000000      0.152796179    
 C   0.00000000       0.00000000      0.152796179       0.00000000    
           2

 O   2.93597388       0.00000000       0.00000000       8.52834582E-02
 C   0.00000000       0.00000000       8.52834582E-02   0.00000000    
           2

 O   2.97199392       0.00000000       0.00000000       3.73049900E-02
 C   0.00000000       0.00000000       3.73049900E-02   0.00000000    
           2

 O   2.99330401       0.00000000       0.00000000       8.92001949E-03
 C   0.00000000       0.00000000       8.92001949E-03   0.00000000    
           2

 O   2.99998808       0.00000000       0.00000000       1.70413405E-05
 C   0.00000000       0.00000000       1.70413405E-05   0.00000000    
           2

 O   2.99208641       0.00000000       0.00000000       1.05421422E-02
 C   0.00000000       0.00000000       1.05421422E-02   0.00000000    
           2

 O   2.96955180       0.00000000       0.00000000       4.05581370E-02
 C   0.00000000       0.00000000       4.05581370E-02   0.00000000    
           2

 O   2.93230247       0.00000000       0.00000000       9.01740491E-02
 C   0.00000000       0.00000000       9.01740491E-02   0.00000000    
           2

 O   2.88040757       0.00000000       0.00000000      0.159297809    
 C   0.00000000       0.00000000      0.159297809       0.00000000    
           2

 O   2.81452584       0.00000000       0.00000000      0.247052014    
 C   0.00000000       0.00000000      0.247052014       0.00000000    
           2

 O   2.73685408       0.00000000       0.00000000      0.350510478    
 C   0.00000000       0.00000000      0.350510478       0.00000000    
           2

 O   2.65299702       0.00000000       0.00000000      0.462207675    
 C   0.00000000       0.00000000      0.462207675       0.00000000    
           2

 O   2.57489276       0.00000000       0.00000000      0.566242039    
 C   0.00000000       0.00000000      0.566242039       0.00000000    
           2

 O   2.52249432       0.00000000       0.00000000      0.636036456    
 C   0.00000000       0.00000000      0.636036456       0.00000000    
           2

 O   2.51634598       0.00000000       0.00000000      0.644226134    
 C   0.00000000       0.00000000      0.644226134       0.00000000    
           2

 O   2.55934143       0.00000000       0.00000000      0.586956441    
 C   0.00000000       0.00000000      0.586956441       0.00000000    
           2

 O   2.63343096       0.00000000       0.00000000      0.488269806    
 C   0.00000000       0.00000000      0.488269806       0.00000000    
           2

 O   2.71730757       0.00000000       0.00000000      0.376546800    
 C   0.00000000       0.00000000      0.376546800       0.00000000    
           2

 O   2.79712605       0.00000000       0.00000000      0.270229161    
 C   0.00000000       0.00000000      0.270229161       0.00000000    
           2

 O   2.86607552       0.00000000       0.00000000      0.178388864    
 C   0.00000000       0.00000000      0.178388864       0.00000000    
           2

 O   2.92136693       0.00000000       0.00000000      0.104741074    
 C   0.00000000       0.00000000      0.104741074       0.00000000    
           2

 O   2.96209073       0.00000000       0.00000000       5.04972413E-02
 C   0.00000000       0.00000000       5.04972413E-02   0.00000000    
           2

 O   2.98809171       0.00000000       0.00000000       1.58641562E-02
 C   0.00000000       0.00000000       1.58641562E-02   0.00000000    
           2

 O   2.99943948       0.00000000       0.00000000       7.49107450E-04
 C   0.00000000       0.00000000       7.49107450E-04   0.00000000    
           2

 O   2.99619794       0.00000000       0.00000000       5.06688654E-03
 C   0.00000000       0.00000000       5.06688654E-03   0.00000000    
           2

 O   2.97834682       0.00000000       0.00000000       2.88443621E-02
 C   0.00000000       0.00000000       2.88443621E-02   0.00000000    
           2

 O   2.94580317       0.00000000       0.00000000       7.21922815E-02
 C   0.00000000       0.00000000       7.21922815E-02   0.00000000    
           2

 O   2.89855599       0.00000000       0.00000000      0.135125399    
 C   0.00000000       0.00000000      0.135125399       0.00000000    
           2

 O   2.83700371       0.00000000       0.00000000      0.217112631    
 C   0.00000000       0.00000000      0.217112631       0.00000000    
           2

 O   2.76270199       0.00000000       0.00000000      0.316082031    
 C   0.00000000       0.00000000      0.316082031       0.00000000    
           2

 O   2.67989111       0.00000000       0.00000000      0.426385581    
 C   0.00000000       0.00000000      0.426385581       0.00000000    
           2

 O   2.59814429       0.00000000       0.00000000      0.535271764    
 C   0.00000000       0.00000000      0.535271764       0.00000000    
           2

 O   2.53501511       0.00000000       0.00000000      0.619359612    
 C   0.00000000       0.00000000      0.619359612       0.00000000    
           2

 O   2.51258016       0.00000000       0.00000000      0.649242878    
 C   0.00000000       0.00000000      0.649242878       0.00000000    
           2

 O   2.54111767       0.00000000       0.00000000      0.611230969    
 C   0.00000000       0.00000000      0.611230969       0.00000000    
           2

 O   2.60779810       0.00000000       0.00000000      0.522412956    
 C   0.00000000       0.00000000      0.522412956       0.00000000    
           2

 O   2.69046378       0.00000000       0.00000000      0.412302852    
 C   0.00000000       0.00000000      0.412302852       0.00000000    
           2

 O   2.77259302       0.00000000       0.00000000      0.302907318    
 C   0.00000000       0.00000000      0.302907318       0.00000000    
           2

 O   2.84545541       0.00000000       0.00000000      0.205855221    
 C   0.00000000       0.00000000      0.205855221       0.00000000    
           2

 O   2.90526795       0.00000000       0.00000000      0.126185179    
 C   0.00000000       0.00000000      0.126185179       0.00000000    
           2

 O   2.95068336       0.00000000       0.00000000       6.56921118E-02
 C   0.00000000       0.00000000       6.56921118E-02   0.00000000    
           2

 O   2.98138380       0.00000000       0.00000000       2.47993022E-02
 C   0.00000000       0.00000000       2.47993022E-02   0.00000000    
           2

 O   2.99740219       0.00000000       0.00000000       3.46276164E-03
 C   0.00000000       0.00000000       3.46276164E-03   0.00000000    
           2

 O   2.99881864       0.00000000       0.00000000       1.57616346E-03
 C   0.00000000       0.00000000       1.57616346E-03   0.00000000    
           2

 O   2.98564172       0.00000000       0.00000000       1.91276912E-02
 C   0.00000000       0.00000000       1.91276912E-02   0.00000000    
           2

 O   2.95780039       0.00000000       0.00000000       5.62122986E-02
 C   0.00000000       0.00000000       5.62122986E-02   0.00000000    
           2

 O   2.91523600       0.00000000       0.00000000      0.112907663    
 C   0.00000000       0.00000000      0.112907663       0.00000000    
           2

 O   2.85816097       0.00000000       0.00000000      0.188931376    
 C   0.00000000       0.00000000      0.188931376       0.00000000    
           2

 O   2.78764153       0.00000000       0.00000000      0.282862931    
 C   0.00000000       0.00000000      0.282862931       0.00000000    
           2

 O   2.70682788       0.00000000       0.00000000      0.390506119    
 C   0.00000000       0.00000000      0.390506119       0.00000000    
           2

 O   2.62324333       0.00000000       0.00000000      0.501840174    
 C   0.00000000       0.00000000      0.501840174       0.00000000    
           2

 O   2.55177808       0.00000000       0.00000000      0.597031355    
 C   0.00000000       0.00000000      0.597031355       0.00000000    
           2

 O   2.51423192       0.00000000       0.00000000      0.647042572    
 C   0.00000000       0.00000000      0.647042572       0.00000000    
           2

 O   2.52685094       0.00000000       0.00000000      0.630234122    
 C   0.00000000       0.00000000      0.630234122       0.00000000    
           2

 O   2.58373666       0.00000000       0.00000000      0.554462671    
 C   0.00000000       0.00000000      0.554462671       0.00000000    
           2

 O   2.66350174       0.00000000       0.00000000      0.448216110    
 C   0.00000000       0.00000000      0.448216110       0.00000000    
           2

 O   2.74707723       0.00000000       0.00000000      0.336894184    
 C   0.00000000       0.00000000      0.336894184       0.00000000    
           2

 O   2.82348561       0.00000000       0.00000000      0.235118628    
 C   0.00000000       0.00000000      0.235118628       0.00000000    
           2

 O   2.88769221       0.00000000       0.00000000      0.149595857    
 C   0.00000000       0.00000000      0.149595857       0.00000000    
           2

 O   2.93777180       0.00000000       0.00000000       8.28902796E-02
 C   0.00000000       0.00000000       8.28902796E-02   0.00000000    
           2

 O   2.97317719       0.00000000       0.00000000       3.57303843E-02
 C   0.00000000       0.00000000       3.57303843E-02   0.00000000    
           2

 O   2.99387550       0.00000000       0.00000000       8.16039555E-03
 C   0.00000000       0.00000000       8.16039555E-03   0.00000000    
           2

 O   2.99995089       0.00000000       0.00000000       6.81281090E-05
 C   0.00000000       0.00000000       6.81281090E-05   0.00000000    
           2

 O   2.99144030       0.00000000       0.00000000       1.14042722E-02
 C   0.00000000       0.00000000       1.14042722E-02   0.00000000    
           2

 O   2.96829319       0.00000000       0.00000000       4.22359183E-02
 C   0.00000000       0.00000000       4.22359183E-02   0.00000000    
           2

 O   2.93042946       0.00000000       0.00000000       9.26702470E-02
 C   0.00000000       0.00000000       9.26702470E-02   0.00000000    
           2

 O   2.87793136       0.00000000       0.00000000      0.162597343    
 C   0.00000000       0.00000000      0.162597343       0.00000000    
           2

 O   2.81149817       0.00000000       0.00000000      0.251086026    
 C   0.00000000       0.00000000      0.251086026       0.00000000    
           2

 O   2.73342323       0.00000000       0.00000000      0.355081171    
 C   0.00000000       0.00000000      0.355081171       0.00000000    
           2

 O   2.64951205       0.00000000       0.00000000      0.466850221    
 C   0.00000000       0.00000000      0.466850221       0.00000000    
           2

 O   2.57203174       0.00000000       0.00000000      0.570053518    
 C   0.00000000       0.00000000      0.570053518       0.00000000    
           2

 O   2.52120781       0.00000000       0.00000000      0.637750804    
 C   0.00000000       0.00000000      0.637750804       0.00000000    
           2

 O   2.51723027       0.00000000       0.00000000      0.643048882    
 C   0.00000000       0.00000000      0.643048882       0.00000000    
           2

 O   2.56197357       0.00000000       0.00000000      0.583451092    
 C   0.00000000       0.00000000      0.583451092       0.00000000    
           2

 O   2.63685989       0.00000000       0.00000000      0.483702928    
 C   0.00000000       0.00000000      0.483702928       0.00000000    
           2

 O   2.72078514       0.00000000       0.00000000      0.371914864    
 C   0.00000000       0.00000000      0.371914864       0.00000000    
           2

 O   2.80024862       0.00000000       0.00000000      0.266069978    
 C   0.00000000       0.00000000      0.266069978       0.00000000    
           2

 O   2.86866546       0.00000000       0.00000000      0.174939096    
 C   0.00000000       0.00000000      0.174939096       0.00000000    
           2

 O   2.92335939       0.00000000       0.00000000      0.102087088    
 C   0.00000000       0.00000000      0.102087088       0.00000000    
           2

 O   2.96346927       0.00000000       0.00000000       4.86608669E-02
 C   0.00000000       0.00000000       4.86608669E-02   0.00000000    
           2

 O   2.98885703       0.00000000       0.00000000       1.48444027E-02
 C   0.00000000       0.00000000       1.48444027E-02   0.00000000    
           2

 O   2.99959540       0.00000000       0.00000000       5.41020185E-04
 C   0.00000000       0.00000000       5.41020185E-04   0.00000000    
           2

 O   2.99574542       0.00000000       0.00000000       5.66912210E-03
 C   0.00000000       0.00000000       5.66912210E-03   0.00000000    
           2

 O   2.97728324       0.00000000       0.00000000       3.02605107E-02
 C   0.00000000       0.00000000       3.02605107E-02   0.00000000    
           2

 O   2.94412518       0.00000000       0.00000000       7.44268298E-02
 C   0.00000000       0.00000000       7.44268298E-02   0.00000000    
           2

 O   2.89626837       0.00000000       0.00000000      0.138171613    
 C   0.00000000       0.00000000      0.138171613       0.00000000    
           2

 O   2.83414125       0.00000000       0.00000000      0.220924616    
 C   0.00000000       0.00000000      0.220924616       0.00000000    
           2

 O   2.75937343       0.00000000       0.00000000      0.320514828    
 C   0.00000000       0.00000000      0.320514828       0.00000000    
           2

 O   2.67636704       0.00000000       0.00000000      0.431078762    
 C   0.00000000       0.00000000      0.431078762       0.00000000    
           2

 O   2.59498715       0.00000000       0.00000000      0.539476097    
 C   0.00000000       0.00000000      0.539476097       0.00000000    
           2

 O   2.53312349       0.00000000       0.00000000      0.621877909    
 C   0.00000000       0.00000000      0.621877909       0.00000000    
           2

 O   2.51276517       0.00000000       0.00000000      0.648994923    
 C   0.00000000       0.00000000      0.648994923       0.00000000    
           2

 O   2.54328847       0.00000000       0.00000000      0.608338177    
 C   0.00000000       0.00000000      0.608338177       0.00000000    
           2

 O   2.61107063       0.00000000       0.00000000      0.518052816    
 C   0.00000000       0.00000000      0.518052816       0.00000000    
           2

 O   2.69398403       0.00000000       0.00000000      0.407612711    
 C   0.00000000       0.00000000      0.407612711       0.00000000    
           2

 O   2.77585602       0.00000000       0.00000000      0.298559785    
 C   0.00000000       0.00000000      0.298559785       0.00000000    
           2

 O   2.84822583       0.00000000       0.00000000      0.202163711    
 C   0.00000000       0.00000000      0.202163711       0.00000000    
           2

 O   2.90745425       0.00000000       0.00000000      0.123271897    
 C   0.00000000       0.00000000      0.123271897       0.00000000    
           2

 O   2.95225811       0.00000000       0.00000000       6.35933727E-02
 C   0.00000000       0.00000000       6.35933727E-02   0.00000000    
           2

 O   2.98234439       0.00000000       0.00000000       2.35185921E-02
 C   0.00000000       0.00000000       2.35185921E-02   0.00000000    
           2

 O   2.99775243       0.00000000       0.00000000       2.99517624E-03
 C   0.00000000       0.00000000       2.99517624E-03   0.00000000    
           2

 O   2.99856043       0.00000000       0.00000000       1.91880949E-03
 C   0.00000000       0.00000000       1.91880949E-03   0.00000000    
           2

 O   2.98477364       0.00000000       0.00000000       2.02827435E-02
 C   0.00000000       0.00000000       2.02827435E-02   0.00000000    
           2

 O   2.95631838       0.00000000       0.00000000       5.81847951E-02
 C   0.00000000       0.00000000       5.81847951E-02   0.00000000    
           2

 O   2.91314125       0.00000000       0.00000000      0.115696512    
 C   0.00000000       0.00000000      0.115696512       0.00000000    
           2

 O   2.85547495       0.00000000       0.00000000      0.192507744    
 C   0.00000000       0.00000000      0.192507744       0.00000000    
           2

 O   2.78444219       0.00000000       0.00000000      0.287122965    
 C   0.00000000       0.00000000      0.287122965       0.00000000    
           2

 O   2.70332146       0.00000000       0.00000000      0.395175129    
 C   0.00000000       0.00000000      0.395175129       0.00000000    
           2

 O   2.61988497       0.00000000       0.00000000      0.506312072    
 C   0.00000000       0.00000000      0.506312072       0.00000000    
           2

 O   2.54937339       0.00000000       0.00000000      0.600232899    
 C   0.00000000       0.00000000      0.600232899       0.00000000    
           2

 O   2.51370811       0.00000000       0.00000000      0.647738636    
 C   0.00000000       0.00000000      0.647738636       0.00000000    
           2

 O   2.52846289       0.00000000       0.00000000      0.628085256    
 C   0.00000000       0.00000000      0.628085256       0.00000000    
           2

 O   2.58676386       0.00000000       0.00000000      0.550428510    
 C   0.00000000       0.00000000      0.550428510       0.00000000    
           2

 O   2.66701412       0.00000000       0.00000000      0.443535686    
 C   0.00000000       0.00000000      0.443535686       0.00000000    
           2

 O   2.75045753       0.00000000       0.00000000      0.332389474    
 C   0.00000000       0.00000000      0.332389474       0.00000000    
           2

 O   2.82642770       0.00000000       0.00000000      0.231197506    
 C   0.00000000       0.00000000      0.231197506       0.00000000    
           2

 O   2.89006948       0.00000000       0.00000000      0.146426931    
 C   0.00000000       0.00000000      0.146426931       0.00000000    
           2

 O   2.93954206       0.00000000       0.00000000       8.05295929E-02
 C   0.00000000       0.00000000       8.05295929E-02   0.00000000    
           2

 O   2.97433305       0.00000000       0.00000000       3.41882668E-02
 C   0.00000000       0.00000000       3.41882668E-02   0.00000000    
           2

 O   2.99441957       0.00000000       0.00000000       7.43300840E-03
 C   0.00000000       0.00000000       7.43300840E-03   0.00000000    
           2

 O   2.99988627       0.00000000       0.00000000       1.51332002E-04
 C   0.00000000       0.00000000       1.51332002E-04   0.00000000    
           2

 O   2.99076653       0.00000000       0.00000000       1.22986138E-02
 C   0.00000000       0.00000000       1.22986138E-02   0.00000000    
           2

 O   2.96700692       0.00000000       0.00000000       4.39461060E-02
 C   0.00000000       0.00000000       4.39461060E-02   0.00000000    
           2

 O   2.92852879       0.00000000       0.00000000       9.51987207E-02
 C   0.00000000       0.00000000       9.51987207E-02   0.00000000    
           2

 O   2.87542868       0.00000000       0.00000000      0.165927678    
 C   0.00000000       0.00000000      0.165927678       0.00000000    
           2

 O   2.80844760       0.00000000       0.00000000      0.255145848    
 C   0.00000000       0.00000000      0.255145848       0.00000000    
           2

 O   2.72997952       0.00000000       0.00000000      0.359664798    
 C   0.00000000       0.00000000      0.359664798       0.00000000    
           2

 O   2.64603543       0.00000000       0.00000000      0.471477747    
 C   0.00000000       0.00000000      0.471477747       0.00000000    
           2

 O   2.56921530       0.00000000       0.00000000      0.573801696    
 C   0.00000000       0.00000000      0.573801696       0.00000000    
           2

 O   2.52000403       0.00000000       0.00000000      0.639350593    
 C   0.00000000       0.00000000      0.639350593       0.00000000    
           2

 O   2.51820087       0.00000000       0.00000000      0.641752243    
 C   0.00000000       0.00000000      0.641752243       0.00000000    
           2

 O   2.56465626       0.00000000       0.00000000      0.579874039    
 C   0.00000000       0.00000000      0.579874039       0.00000000    
           2

 O   2.64030147       0.00000000       0.00000000      0.479115069    
 C   0.00000000       0.00000000      0.479115069       0.00000000    
           2

 O   2.72425246       0.00000000       0.00000000      0.367292881    
 C   0.00000000       0.00000000      0.367292881       0.00000000    
           2

 O   2.80334997       0.00000000       0.00000000      0.261935413    
 C   0.00000000       0.00000000      0.261935413       0.00000000    
           2

 O   2.87122989       0.00000000       0.00000000      0.171519801    
 C   0.00000000       0.00000000      0.171519801       0.00000000    
           2

 O   2.92532492       0.00000000       0.00000000       9.94654000E-02
 C   0.00000000       0.00000000       9.94654000E-02   0.00000000    
           2

 O   2.96482086       0.00000000       0.00000000       4.68570553E-02
 C   0.00000000       0.00000000       4.68570553E-02   0.00000000    
           2

 O   2.98959565       0.00000000       0.00000000       1.38570592E-02
 C   0.00000000       0.00000000       1.38570592E-02   0.00000000    
           2

 O   2.99972463       0.00000000       0.00000000       3.65242362E-04
 C   0.00000000       0.00000000       3.65242362E-04   0.00000000    
           2

 O   2.99526620       0.00000000       0.00000000       6.30377978E-03
 C   0.00000000       0.00000000       6.30377978E-03   0.00000000    
           2

 O   2.97619271       0.00000000       0.00000000       3.17093544E-02
 C   0.00000000       0.00000000       3.17093544E-02   0.00000000    
           2

 O   2.94242001       0.00000000       0.00000000       7.66942054E-02
 C   0.00000000       0.00000000       7.66942054E-02   0.00000000    
           2

 O   2.89395452       0.00000000       0.00000000      0.141249880    
 C   0.00000000       0.00000000      0.141249880       0.00000000    
           2

 O   2.83125496       0.00000000       0.00000000      0.224765256    
 C   0.00000000       0.00000000      0.224765256       0.00000000    
           2

 O   2.75602818       0.00000000       0.00000000      0.324966669    
 C   0.00000000       0.00000000      0.324966669       0.00000000    
           2

 O   2.67284298       0.00000000       0.00000000      0.435768783    
 C   0.00000000       0.00000000      0.435768783       0.00000000    
           2

 O   2.59186172       0.00000000       0.00000000      0.543635368    
 C   0.00000000       0.00000000      0.543635368       0.00000000    
           2

 O   2.53130507       0.00000000       0.00000000      0.624296427    
 C   0.00000000       0.00000000      0.624296427       0.00000000    
           2

 O   2.51304221       0.00000000       0.00000000      0.648622394    
 C   0.00000000       0.00000000      0.648622394       0.00000000    
           2

 O   2.54552412       0.00000000       0.00000000      0.605356514    
 C   0.00000000       0.00000000      0.605356514       0.00000000    
           2

 O   2.61436701       0.00000000       0.00000000      0.513658166    
 C   0.00000000       0.00000000      0.513658166       0.00000000    
           2

 O   2.69749999       0.00000000       0.00000000      0.402925581    
 C   0.00000000       0.00000000      0.402925581       0.00000000    
           2

 O   2.77910042       0.00000000       0.00000000      0.294234216    
 C   0.00000000       0.00000000      0.294234216       0.00000000    
           2

 O   2.85097170       0.00000000       0.00000000      0.198502094    
 C   0.00000000       0.00000000      0.198502094       0.00000000    
           2

 O   2.90961361       0.00000000       0.00000000      0.120391183    
 C   0.00000000       0.00000000      0.120391183       0.00000000    
           2

 O   2.95380545       0.00000000       0.00000000       6.15277216E-02
 C   0.00000000       0.00000000       6.15277216E-02   0.00000000    
           2

 O   2.98327780       0.00000000       0.00000000       2.22707801E-02
 C   0.00000000       0.00000000       2.22707801E-02   0.00000000    
           2

 O   2.99807549       0.00000000       0.00000000       2.56025046E-03
 C   0.00000000       0.00000000       2.56025046E-03   0.00000000    
           2

 O   2.99827528       0.00000000       0.00000000       2.29406869E-03
 C   0.00000000       0.00000000       2.29406869E-03   0.00000000    
           2

 O   2.98387837       0.00000000       0.00000000       2.14705672E-02
 C   0.00000000       0.00000000       2.14705672E-02   0.00000000    
           2

 O   2.95480943       0.00000000       0.00000000       6.01901934E-02
 C   0.00000000       0.00000000       6.01901934E-02   0.00000000    
           2

 O   2.91101956       0.00000000       0.00000000      0.118517801    
 C   0.00000000       0.00000000      0.118517801       0.00000000    
           2

 O   2.85276365       0.00000000       0.00000000      0.196114153    
 C   0.00000000       0.00000000      0.196114153       0.00000000    
           2

 O   2.78122306       0.00000000       0.00000000      0.291405797    
 C   0.00000000       0.00000000      0.291405797       0.00000000    
           2

 O   2.69980836       0.00000000       0.00000000      0.399849534    
 C   0.00000000       0.00000000      0.399849534       0.00000000    
           2

 O   2.61654615       0.00000000       0.00000000      0.510754168    
 C   0.00000000       0.00000000      0.510754168       0.00000000    
           2

 O   2.54702830       0.00000000       0.00000000      0.603351295    
 C   0.00000000       0.00000000      0.603351295       0.00000000    
           2

 O   2.51327467       0.00000000       0.00000000      0.648310900    
 C   0.00000000       0.00000000      0.648310900       0.00000000    
           2

 O   2.53015161       0.00000000       0.00000000      0.625830770    
 C   0.00000000       0.00000000      0.625830770       0.00000000    
           2

 O   2.58982730       0.00000000       0.00000000      0.546342969    
 C   0.00000000       0.00000000      0.546342969       0.00000000    
           2

 O   2.67052937       0.00000000       0.00000000      0.438848138    
 C   0.00000000       0.00000000      0.438848138       0.00000000    
           2

 O   2.75382280       0.00000000       0.00000000      0.327901840    
 C   0.00000000       0.00000000      0.327901840       0.00000000    
           2

 O   2.82934666       0.00000000       0.00000000      0.227304265    
 C   0.00000000       0.00000000      0.227304265       0.00000000    
           2

 O   2.89242077       0.00000000       0.00000000      0.143289953    
 C   0.00000000       0.00000000      0.143289953       0.00000000    
           2

 O   2.94128585       0.00000000       0.00000000       7.82019868E-02
 C   0.00000000       0.00000000       7.82019868E-02   0.00000000    
           2

 O   2.97546220       0.00000000       0.00000000       3.26793119E-02
 C   0.00000000       0.00000000       3.26793119E-02   0.00000000    
           2

 O   2.99493718       0.00000000       0.00000000       6.73866272E-03
 C   0.00000000       0.00000000       6.73866272E-03   0.00000000    
           2

 O   2.99979520       0.00000000       0.00000000       2.67596450E-04
 C   0.00000000       0.00000000       2.67596450E-04   0.00000000    
           2

 O   2.99006629       0.00000000       0.00000000       1.32262614E-02
 C   0.00000000       0.00000000       1.32262614E-02   0.00000000    
           2

 O   2.96569395       0.00000000       0.00000000       4.56899181E-02
 C   0.00000000       0.00000000       4.56899181E-02   0.00000000    
           2

 O   2.92660141       0.00000000       0.00000000       9.77607667E-02
 C   0.00000000       0.00000000       9.77607667E-02   0.00000000    
           2

 O   2.87290025       0.00000000       0.00000000      0.169290155    
 C   0.00000000       0.00000000      0.169290155       0.00000000    
           2

 O   2.80537534       0.00000000       0.00000000      0.259232759    
 C   0.00000000       0.00000000      0.259232759       0.00000000    
           2

 O   2.72652388       0.00000000       0.00000000      0.364262253    
 C   0.00000000       0.00000000      0.364262253       0.00000000    
           2

 O   2.64256835       0.00000000       0.00000000      0.476090372    
 C   0.00000000       0.00000000      0.476090372       0.00000000    
           2

 O   2.56644511       0.00000000       0.00000000      0.577485979    
 C   0.00000000       0.00000000      0.577485979       0.00000000    
           2

 O   2.51888514       0.00000000       0.00000000      0.640835583    
 C   0.00000000       0.00000000      0.640835583       0.00000000    
           2

 O   2.51925850       0.00000000       0.00000000      0.640338123    
 C   0.00000000       0.00000000      0.640338123       0.00000000    
           2

 O   2.56738925       0.00000000       0.00000000      0.576228142    
 C   0.00000000       0.00000000      0.576228142       0.00000000    
           2

 O   2.64375567       0.00000000       0.00000000      0.474508375    
 C   0.00000000       0.00000000      0.474508375       0.00000000    
           2

 O   2.72770953       0.00000000       0.00000000      0.362682164    
 C   0.00000000       0.00000000      0.362682164       0.00000000    
           2

 O   2.80643034       0.00000000       0.00000000      0.257826269    
 C   0.00000000       0.00000000      0.257826269       0.00000000    
           2

 O   2.87376881       0.00000000       0.00000000      0.168131590    
 C   0.00000000       0.00000000      0.168131590       0.00000000    
           2

 O   2.92726374       0.00000000       0.00000000       9.68766063E-02
 C   0.00000000       0.00000000       9.68766063E-02   0.00000000    
           2

 O   2.96614528       0.00000000       0.00000000       4.50864360E-02
 C   0.00000000       0.00000000       4.50864360E-02   0.00000000    
           2

 O   2.99030709       0.00000000       0.00000000       1.29027888E-02
 C   0.00000000       0.00000000       1.29027888E-02   0.00000000    
