           2

 O   2.46824169       0.00000000       0.00000000       4.23020199E-02
 C   0.00000000       0.00000000       4.23020199E-02   0.00000000    
           2

 O   2.38792038       0.00000000       0.00000000      0.149289340    
 C   0.00000000       0.00000000      0.149289340       0.00000000    
           2

 O   2.32068229       0.00000000       0.00000000      0.238850102    
 C   0.00000000       0.00000000      0.238850102       0.00000000    
           2

 O   2.35587621       0.00000000       0.00000000      0.191971883    
 C   0.00000000       0.00000000      0.191971883       0.00000000    
           2

 O   2.44145513       0.00000000       0.00000000       7.79811665E-02
 C   0.00000000       0.00000000       7.79811665E-02   0.00000000    
           2

 O   2.49477935       0.00000000       0.00000000       6.95361942E-03
 C   0.00000000       0.00000000       6.95361942E-03   0.00000000    
           2

 O   2.48675299       0.00000000       0.00000000       1.76446903E-02
 C   0.00000000       0.00000000       1.76446903E-02   0.00000000    
           2

 O   2.42092180       0.00000000       0.00000000      0.105331272    
 C   0.00000000       0.00000000      0.105331272       0.00000000    
           2

 O   2.33802342       0.00000000       0.00000000      0.215751395    
 C   0.00000000       0.00000000      0.215751395       0.00000000    
           2

 O   2.33031940       0.00000000       0.00000000      0.226012945    
 C   0.00000000       0.00000000      0.226012945       0.00000000    
           2

 O   2.40950966       0.00000000       0.00000000      0.120532110    
 C   0.00000000       0.00000000      0.120532110       0.00000000    
           2

 O   2.48120689       0.00000000       0.00000000       2.50319541E-02
 C   0.00000000       0.00000000       2.50319541E-02   0.00000000    
           2

 O   2.49770808       0.00000000       0.00000000       3.05239111E-03
 C   0.00000000       0.00000000       3.05239111E-03   0.00000000    
           2

 O   2.45163012       0.00000000       0.00000000       6.44279122E-02
 C   0.00000000       0.00000000       6.44279122E-02   0.00000000    
           2

 O   2.36666393       0.00000000       0.00000000      0.177602440    
 C   0.00000000       0.00000000      0.177602440       0.00000000    
           2

 O   2.31854510       0.00000000       0.00000000      0.241696373    
 C   0.00000000       0.00000000      0.241696373       0.00000000    
           2

 O   2.37644482       0.00000000       0.00000000      0.164574280    
 C   0.00000000       0.00000000      0.164574280       0.00000000    
           2

 O   2.45979643       0.00000000       0.00000000       5.35503402E-02
 C   0.00000000       0.00000000       5.35503402E-02   0.00000000    
           2

 O   2.49933124       0.00000000       0.00000000       8.90150666E-04
 C   0.00000000       0.00000000       8.90150666E-04   0.00000000    
           2

 O   2.47562075       0.00000000       0.00000000       3.24724913E-02
 C   0.00000000       0.00000000       3.24724913E-02   0.00000000    
           2

 O   2.39947820       0.00000000       0.00000000      0.133893847    
 C   0.00000000       0.00000000      0.133893847       0.00000000    
           2

 O   2.32498503       0.00000000       0.00000000      0.233118147    
 C   0.00000000       0.00000000      0.233118147       0.00000000    
           2

 O   2.34585929       0.00000000       0.00000000      0.205313727    
 C   0.00000000       0.00000000      0.205313727       0.00000000    
           2

 O   2.43065405       0.00000000       0.00000000       9.23675671E-02
 C   0.00000000       0.00000000       9.23675671E-02   0.00000000    
           2

 O   2.49087000       0.00000000       0.00000000       1.21604502E-02
 C   0.00000000       0.00000000       1.21604502E-02   0.00000000    
           2

 O   2.49142909       0.00000000       0.00000000       1.14158522E-02
 C   0.00000000       0.00000000       1.14158522E-02   0.00000000    
           2

 O   2.43208528       0.00000000       0.00000000       9.04615223E-02
 C   0.00000000       0.00000000       9.04615223E-02   0.00000000    
           2

 O   2.34710622       0.00000000       0.00000000      0.203652948    
 C   0.00000000       0.00000000      0.203652948       0.00000000    
           2

 O   2.32431030       0.00000000       0.00000000      0.234017044    
 C   0.00000000       0.00000000      0.234017044       0.00000000    
           2

 O   2.39797592       0.00000000       0.00000000      0.135894835    
 C   0.00000000       0.00000000      0.135894835       0.00000000    
           2

 O   2.47472143       0.00000000       0.00000000       3.36702839E-02
 C   0.00000000       0.00000000       3.36702839E-02   0.00000000    
           2

 O   2.49949312       0.00000000       0.00000000       6.74691051E-04
 C   0.00000000       0.00000000       6.74691051E-04   0.00000000    
           2

 O   2.46095347       0.00000000       0.00000000       5.20093776E-02
 C   0.00000000       0.00000000       5.20093776E-02   0.00000000    
           2

 O   2.37792611       0.00000000       0.00000000      0.162601411    
 C   0.00000000       0.00000000      0.162601411       0.00000000    
           2

 O   2.31869459       0.00000000       0.00000000      0.241497308    
 C   0.00000000       0.00000000      0.241497308       0.00000000    
           2

 O   2.36522913       0.00000000       0.00000000      0.179513633    
 C   0.00000000       0.00000000      0.179513633       0.00000000    
           2

 O   2.45035172       0.00000000       0.00000000       6.61308616E-02
 C   0.00000000       0.00000000       6.61308616E-02   0.00000000    
           2

 O   2.49738884       0.00000000       0.00000000       3.47764045E-03
 C   0.00000000       0.00000000       3.47764045E-03   0.00000000    
           2

 O   2.48197913       0.00000000       0.00000000       2.40033604E-02
 C   0.00000000       0.00000000       2.40033604E-02   0.00000000    
           2

 O   2.41100216       0.00000000       0.00000000      0.118544191    
 C   0.00000000       0.00000000      0.118544191       0.00000000    
           2

 O   2.33123112       0.00000000       0.00000000      0.224798590    
 C   0.00000000       0.00000000      0.224798590       0.00000000    
           2

 O   2.33693695       0.00000000       0.00000000      0.217198372    
 C   0.00000000       0.00000000      0.217198372       0.00000000    
           2

 O   2.41944957       0.00000000       0.00000000      0.107292160    
 C   0.00000000       0.00000000      0.107292160       0.00000000    
           2

 O   2.48608255       0.00000000       0.00000000       1.85375586E-02
 C   0.00000000       0.00000000       1.85375586E-02   0.00000000    
           2

 O   2.49521899       0.00000000       0.00000000       6.36778306E-03
 C   0.00000000       0.00000000       6.36778306E-03   0.00000000    
           2

 O   2.44281816       0.00000000       0.00000000       7.61652961E-02
 C   0.00000000       0.00000000       7.61652961E-02   0.00000000    
           2

 O   2.35724092       0.00000000       0.00000000      0.190153509    
 C   0.00000000       0.00000000      0.190153509       0.00000000    
           2

 O   2.32027769       0.00000000       0.00000000      0.239388317    
 C   0.00000000       0.00000000      0.239388317       0.00000000    
           2

 O   2.38642097       0.00000000       0.00000000      0.151285827    
 C   0.00000000       0.00000000      0.151285827       0.00000000    
           2

 O   2.46720409       0.00000000       0.00000000       4.36830670E-02
 C   0.00000000       0.00000000       4.36830670E-02   0.00000000    
           2

 O   2.49998879       0.00000000       0.00000000       1.40406191E-05
 C   0.00000000       0.00000000       1.40406191E-05   0.00000000    
           2

 O   2.46926093       0.00000000       0.00000000       4.09432128E-02
 C   0.00000000       0.00000000       4.09432128E-02   0.00000000    
           2

 O   2.38942051       0.00000000       0.00000000      0.147290111    
 C   0.00000000       0.00000000      0.147290111       0.00000000    
           2

 O   2.32112217       0.00000000       0.00000000      0.238263026    
 C   0.00000000       0.00000000      0.238263026       0.00000000    
           2

 O   2.35452342       0.00000000       0.00000000      0.193772659    
 C   0.00000000       0.00000000      0.193772659       0.00000000    
           2

 O   2.44008160       0.00000000       0.00000000       7.98098221E-02
 C   0.00000000       0.00000000       7.98098221E-02   0.00000000    
           2

 O   2.49432373       0.00000000       0.00000000       7.55973905E-03
 C   0.00000000       0.00000000       7.55973905E-03   0.00000000    
           2

 O   2.48740935       0.00000000       0.00000000       1.67697929E-02
 C   0.00000000       0.00000000       1.67697929E-02   0.00000000    
           2

 O   2.42238998       0.00000000       0.00000000      0.103375137    
 C   0.00000000       0.00000000      0.103375137       0.00000000    
           2

 O   2.33913255       0.00000000       0.00000000      0.214273542    
 C   0.00000000       0.00000000      0.214273542       0.00000000    
           2

 O   2.32943583       0.00000000       0.00000000      0.227189630    
 C   0.00000000       0.00000000      0.227189630       0.00000000    
           2

 O   2.40801501       0.00000000       0.00000000      0.122522637    
 C   0.00000000       0.00000000      0.122522637       0.00000000    
           2

 O   2.48041916       0.00000000       0.00000000       2.60808989E-02
 C   0.00000000       0.00000000       2.60808989E-02   0.00000000    
           2

 O   2.49800849       0.00000000       0.00000000       2.65188515E-03
 C   0.00000000       0.00000000       2.65188515E-03   0.00000000    
           2

 O   2.45289445       0.00000000       0.00000000       6.27433211E-02
 C   0.00000000       0.00000000       6.27433211E-02   0.00000000    
           2

 O   2.36810660       0.00000000       0.00000000      0.175680220    
 C   0.00000000       0.00000000      0.175680220       0.00000000    
           2

 O   2.31843376       0.00000000       0.00000000      0.241844177    
 C   0.00000000       0.00000000      0.241844177       0.00000000    
           2

 O   2.37496734       0.00000000       0.00000000      0.166541860    
 C   0.00000000       0.00000000      0.166541860       0.00000000    
           2

 O   2.45862246       0.00000000       0.00000000       5.51139340E-02
 C   0.00000000       0.00000000       5.51139340E-02   0.00000000    
           2

 O   2.49914813       0.00000000       0.00000000       1.13387406E-03
 C   0.00000000       0.00000000       1.13387406E-03   0.00000000    
           2

 O   2.47650313       0.00000000       0.00000000       3.12969834E-02
 C   0.00000000       0.00000000       3.12969834E-02   0.00000000    
           2

 O   2.40098023       0.00000000       0.00000000      0.131893128    
 C   0.00000000       0.00000000      0.131893128       0.00000000    
           2

 O   2.32569289       0.00000000       0.00000000      0.232175499    
 C   0.00000000       0.00000000      0.232175499       0.00000000    
           2

 O   2.34463072       0.00000000       0.00000000      0.206950381    
 C   0.00000000       0.00000000      0.206950381       0.00000000    
           2

 O   2.42921638       0.00000000       0.00000000       9.42829475E-02
 C   0.00000000       0.00000000       9.42829475E-02   0.00000000    
           2

 O   2.49029636       0.00000000       0.00000000       1.29249021E-02
 C   0.00000000       0.00000000       1.29249021E-02   0.00000000    
           2

 O   2.49197340       0.00000000       0.00000000       1.06912181E-02
 C   0.00000000       0.00000000       1.06912181E-02   0.00000000    
           2

 O   2.43350911       0.00000000       0.00000000       8.85652006E-02
 C   0.00000000       0.00000000       8.85652006E-02   0.00000000    
           2

 O   2.34837103       0.00000000       0.00000000      0.201968417    
 C   0.00000000       0.00000000      0.201968417       0.00000000    
           2

 O   2.32366920       0.00000000       0.00000000      0.234871075    
 C   0.00000000       0.00000000      0.234871075       0.00000000    
           2

 O   2.39647341       0.00000000       0.00000000      0.137896463    
 C   0.00000000       0.00000000      0.137896463       0.00000000    
           2

 O   2.47380447       0.00000000       0.00000000       3.48919034E-02
 C   0.00000000       0.00000000       3.48919034E-02   0.00000000    
           2

 O   2.49963260       0.00000000       0.00000000       4.89030033E-04
 C   0.00000000       0.00000000       4.89030033E-04   0.00000000    
           2

 O   2.46209264       0.00000000       0.00000000       5.04919030E-02
 C   0.00000000       0.00000000       5.04919030E-02   0.00000000    
           2

 O   2.37941098       0.00000000       0.00000000      0.160623372    
 C   0.00000000       0.00000000      0.160623372       0.00000000    
           2

 O   2.31888318       0.00000000       0.00000000      0.241246149    
 C   0.00000000       0.00000000      0.241246149       0.00000000    
           2

 O   2.36380315       0.00000000       0.00000000      0.181413159    
 C   0.00000000       0.00000000      0.181413159       0.00000000    
           2

 O   2.44905901       0.00000000       0.00000000       6.78528175E-02
 C   0.00000000       0.00000000       6.78528175E-02   0.00000000    
           2

 O   2.49705005       0.00000000       0.00000000       3.92896682E-03
 C   0.00000000       0.00000000       3.92896682E-03   0.00000000    
           2

 O   2.48273492       0.00000000       0.00000000       2.29965094E-02
 C   0.00000000       0.00000000       2.29965094E-02   0.00000000    
           2

 O   2.41249180       0.00000000       0.00000000      0.116559774    
 C   0.00000000       0.00000000      0.116559774       0.00000000    
           2

 O   2.33217120       0.00000000       0.00000000      0.223546430    
 C   0.00000000       0.00000000      0.223546430       0.00000000    
           2

 O   2.33587527       0.00000000       0.00000000      0.218612671    
 C   0.00000000       0.00000000      0.218612671       0.00000000    
           2

 O   2.41797352       0.00000000       0.00000000      0.109258354    
 C   0.00000000       0.00000000      0.109258354       0.00000000    
           2

 O   2.48539686       0.00000000       0.00000000       1.94510370E-02
 C   0.00000000       0.00000000       1.94510370E-02   0.00000000    
           2

 O   2.49564123       0.00000000       0.00000000       5.80576435E-03
 C   0.00000000       0.00000000       5.80576435E-03   0.00000000    
           2

 O   2.44416976       0.00000000       0.00000000       7.43654072E-02
 C   0.00000000       0.00000000       7.43654072E-02   0.00000000    
           2

 O   2.35861850       0.00000000       0.00000000      0.188319027    
 C   0.00000000       0.00000000      0.188319027       0.00000000    
           2

 O   2.31991124       0.00000000       0.00000000      0.239876866    
 C   0.00000000       0.00000000      0.239876866       0.00000000    
           2

 O   2.38492393       0.00000000       0.00000000      0.153280318    
 C   0.00000000       0.00000000      0.153280318       0.00000000    
