           2

 O   2.29421902       0.00000000       0.00000000       7.70028122E-03
 C   0.00000000       0.00000000       7.70028122E-03   0.00000000    
           2

 O   2.28740859       0.00000000       0.00000000       1.67718269E-02
 C   0.00000000       0.00000000       1.67718269E-02   0.00000000    
           2

 O   2.28358030       0.00000000       0.00000000       2.18709260E-02
 C   0.00000000       0.00000000       2.18709260E-02   0.00000000    
           2

 O   2.28322864       0.00000000       0.00000000       2.23392863E-02
 C   0.00000000       0.00000000       2.23392863E-02   0.00000000    
           2

 O   2.28485227       0.00000000       0.00000000       2.01765355E-02
 C   0.00000000       0.00000000       2.01765355E-02   0.00000000    
           2

 O   2.28676605       0.00000000       0.00000000       1.76273920E-02
 C   0.00000000       0.00000000       1.76273920E-02   0.00000000    
           2

 O   2.28793645       0.00000000       0.00000000       1.60685852E-02
 C   0.00000000       0.00000000       1.60685852E-02   0.00000000    
           2

 O   2.28813314       0.00000000       0.00000000       1.58064328E-02
 C   0.00000000       0.00000000       1.58064328E-02   0.00000000    
           2

 O   2.28769159       0.00000000       0.00000000       1.63945090E-02
 C   0.00000000       0.00000000       1.63945090E-02   0.00000000    
           2

 O   2.28711128       0.00000000       0.00000000       1.71673670E-02
 C   0.00000000       0.00000000       1.71673670E-02   0.00000000    
           2

 O   2.28673720       0.00000000       0.00000000       1.76654868E-02
 C   0.00000000       0.00000000       1.76654868E-02   0.00000000    
           2

 O   2.28665757       0.00000000       0.00000000       1.77715365E-02
 C   0.00000000       0.00000000       1.77715365E-02   0.00000000    
           2

 O   2.28677750       0.00000000       0.00000000       1.76119413E-02
 C   0.00000000       0.00000000       1.76119413E-02   0.00000000    
           2

 O   2.28694868       0.00000000       0.00000000       1.73839349E-02
 C   0.00000000       0.00000000       1.73839349E-02   0.00000000    
           2

 O   2.28706551       0.00000000       0.00000000       1.72282904E-02
 C   0.00000000       0.00000000       1.72282904E-02   0.00000000    
           2

 O   2.28709602       0.00000000       0.00000000       1.71876457E-02
 C   0.00000000       0.00000000       1.71876457E-02   0.00000000    
           2

 O   2.28706431       0.00000000       0.00000000       1.72298923E-02
 C   0.00000000       0.00000000       1.72298923E-02   0.00000000    
           2

 O   2.28701377       0.00000000       0.00000000       1.72972772E-02
 C   0.00000000       0.00000000       1.72972772E-02   0.00000000    
           2

 O   2.28697729       0.00000000       0.00000000       1.73458904E-02
 C   0.00000000       0.00000000       1.73458904E-02   0.00000000    
           2

 O   2.28696609       0.00000000       0.00000000       1.73607152E-02
 C   0.00000000       0.00000000       1.73607152E-02   0.00000000    
           2

 O   2.28697419       0.00000000       0.00000000       1.73497926E-02
 C   0.00000000       0.00000000       1.73497926E-02   0.00000000    
           2

 O   2.28698897       0.00000000       0.00000000       1.73299592E-02
 C   0.00000000       0.00000000       1.73299592E-02   0.00000000    
           2

 O   2.28700042       0.00000000       0.00000000       1.73147563E-02
 C   0.00000000       0.00000000       1.73147563E-02   0.00000000    
           2

 O   2.28700447       0.00000000       0.00000000       1.73094887E-02
 C   0.00000000       0.00000000       1.73094887E-02   0.00000000    
           2

 O   2.28700233       0.00000000       0.00000000       1.73122287E-02
 C   0.00000000       0.00000000       1.73122287E-02   0.00000000    
           2

 O   2.28699803       0.00000000       0.00000000       1.73180215E-02
 C   0.00000000       0.00000000       1.73180215E-02   0.00000000    
           2

 O   2.28699446       0.00000000       0.00000000       1.73227340E-02
 C   0.00000000       0.00000000       1.73227340E-02   0.00000000    
           2

 O   2.28699303       0.00000000       0.00000000       1.73245240E-02
 C   0.00000000       0.00000000       1.73245240E-02   0.00000000    
           2

 O   2.28699350       0.00000000       0.00000000       1.73238292E-02
 C   0.00000000       0.00000000       1.73238292E-02   0.00000000    
           2

 O   2.28699470       0.00000000       0.00000000       1.73221417E-02
 C   0.00000000       0.00000000       1.73221417E-02   0.00000000    
           2

 O   2.28699589       0.00000000       0.00000000       1.73206870E-02
 C   0.00000000       0.00000000       1.73206870E-02   0.00000000    
           2

 O   2.28699636       0.00000000       0.00000000       1.73200648E-02
 C   0.00000000       0.00000000       1.73200648E-02   0.00000000    
           2

 O   2.28699613       0.00000000       0.00000000       1.73202623E-02
 C   0.00000000       0.00000000       1.73202623E-02   0.00000000    
           2

 O   2.28699589       0.00000000       0.00000000       1.73207074E-02
 C   0.00000000       0.00000000       1.73207074E-02   0.00000000    
           2

 O   2.28699565       0.00000000       0.00000000       1.73211675E-02
 C   0.00000000       0.00000000       1.73211675E-02   0.00000000    
           2

 O   2.28699541       0.00000000       0.00000000       1.73214078E-02
 C   0.00000000       0.00000000       1.73214078E-02   0.00000000    
           2

 O   2.28699541       0.00000000       0.00000000       1.73213854E-02
 C   0.00000000       0.00000000       1.73213854E-02   0.00000000    
           2

 O   2.28699541       0.00000000       0.00000000       1.73212755E-02
 C   0.00000000       0.00000000       1.73212755E-02   0.00000000    
           2

 O   2.28699565       0.00000000       0.00000000       1.73211060E-02
 C   0.00000000       0.00000000       1.73211060E-02   0.00000000    
           2

 O   2.28699565       0.00000000       0.00000000       1.73210688E-02
 C   0.00000000       0.00000000       1.73210688E-02   0.00000000    
           2

 O   2.28699565       0.00000000       0.00000000       1.73210315E-02
 C   0.00000000       0.00000000       1.73210315E-02   0.00000000    
           2

 O   2.28699565       0.00000000       0.00000000       1.73209943E-02
 C   0.00000000       0.00000000       1.73209943E-02   0.00000000    
           2

 O   2.28699565       0.00000000       0.00000000       1.73210148E-02
 C   0.00000000       0.00000000       1.73210148E-02   0.00000000    
           2

 O   2.28699565       0.00000000       0.00000000       1.73210353E-02
 C   0.00000000       0.00000000       1.73210353E-02   0.00000000    
           2

 O   2.28699565       0.00000000       0.00000000       1.73210558E-02
 C   0.00000000       0.00000000       1.73210558E-02   0.00000000    
           2

 O   2.28699565       0.00000000       0.00000000       1.73210762E-02
 C   0.00000000       0.00000000       1.73210762E-02   0.00000000    
           2

 O   2.28699565       0.00000000       0.00000000       1.73210967E-02
 C   0.00000000       0.00000000       1.73210967E-02   0.00000000    
           2

 O   2.28699565       0.00000000       0.00000000       1.73211172E-02
 C   0.00000000       0.00000000       1.73211172E-02   0.00000000    
           2

 O   2.28699565       0.00000000       0.00000000       1.73211377E-02
 C   0.00000000       0.00000000       1.73211377E-02   0.00000000    
           2

 O   2.28699565       0.00000000       0.00000000       1.73211582E-02
 C   0.00000000       0.00000000       1.73211582E-02   0.00000000    
           2

 O   2.28699565       0.00000000       0.00000000       1.73211787E-02
 C   0.00000000       0.00000000       1.73211787E-02   0.00000000    
           2

 O   2.28699565       0.00000000       0.00000000       1.73211992E-02
 C   0.00000000       0.00000000       1.73211992E-02   0.00000000    
           2

 O   2.28699565       0.00000000       0.00000000       1.73212197E-02
 C   0.00000000       0.00000000       1.73212197E-02   0.00000000    
           2

 O   2.28699565       0.00000000       0.00000000       1.73211824E-02
 C   0.00000000       0.00000000       1.73211824E-02   0.00000000    
           2

 O   2.28699565       0.00000000       0.00000000       1.73211452E-02
 C   0.00000000       0.00000000       1.73211452E-02   0.00000000    
           2

 O   2.28699565       0.00000000       0.00000000       1.73211079E-02
 C   0.00000000       0.00000000       1.73211079E-02   0.00000000    
           2

 O   2.28699565       0.00000000       0.00000000       1.73210707E-02
 C   0.00000000       0.00000000       1.73210707E-02   0.00000000    
           2

 O   2.28699565       0.00000000       0.00000000       1.73210334E-02
 C   0.00000000       0.00000000       1.73210334E-02   0.00000000    
           2

 O   2.28699565       0.00000000       0.00000000       1.73209962E-02
 C   0.00000000       0.00000000       1.73209962E-02   0.00000000    
           2

 O   2.28699565       0.00000000       0.00000000       1.73210166E-02
 C   0.00000000       0.00000000       1.73210166E-02   0.00000000    
           2

 O   2.28699565       0.00000000       0.00000000       1.73210371E-02
 C   0.00000000       0.00000000       1.73210371E-02   0.00000000    
           2

 O   2.28699565       0.00000000       0.00000000       1.73210576E-02
 C   0.00000000       0.00000000       1.73210576E-02   0.00000000    
           2

 O   2.28699565       0.00000000       0.00000000       1.73210781E-02
 C   0.00000000       0.00000000       1.73210781E-02   0.00000000    
           2

 O   2.28699565       0.00000000       0.00000000       1.73210986E-02
 C   0.00000000       0.00000000       1.73210986E-02   0.00000000    
           2

 O   2.28699565       0.00000000       0.00000000       1.73211191E-02
 C   0.00000000       0.00000000       1.73211191E-02   0.00000000    
           2

 O   2.28699565       0.00000000       0.00000000       1.73211396E-02
 C   0.00000000       0.00000000       1.73211396E-02   0.00000000    
           2

 O   2.28699565       0.00000000       0.00000000       1.73211601E-02
 C   0.00000000       0.00000000       1.73211601E-02   0.00000000    
           2

 O   2.28699565       0.00000000       0.00000000       1.73211806E-02
 C   0.00000000       0.00000000       1.73211806E-02   0.00000000    
           2

 O   2.28699565       0.00000000       0.00000000       1.73212010E-02
 C   0.00000000       0.00000000       1.73212010E-02   0.00000000    
           2

 O   2.28699565       0.00000000       0.00000000       1.73212215E-02
 C   0.00000000       0.00000000       1.73212215E-02   0.00000000    
           2

 O   2.28699565       0.00000000       0.00000000       1.73211843E-02
 C   0.00000000       0.00000000       1.73211843E-02   0.00000000    
           2

 O   2.28699565       0.00000000       0.00000000       1.73211470E-02
 C   0.00000000       0.00000000       1.73211470E-02   0.00000000    
           2

 O   2.28699565       0.00000000       0.00000000       1.73211098E-02
 C   0.00000000       0.00000000       1.73211098E-02   0.00000000    
           2

 O   2.28699565       0.00000000       0.00000000       1.73210725E-02
 C   0.00000000       0.00000000       1.73210725E-02   0.00000000    
           2

 O   2.28699565       0.00000000       0.00000000       1.73210353E-02
 C   0.00000000       0.00000000       1.73210353E-02   0.00000000    
           2

 O   2.28699565       0.00000000       0.00000000       1.73209980E-02
 C   0.00000000       0.00000000       1.73209980E-02   0.00000000    
           2

 O   2.28699565       0.00000000       0.00000000       1.73210185E-02
 C   0.00000000       0.00000000       1.73210185E-02   0.00000000    
           2

 O   2.28699565       0.00000000       0.00000000       1.73210390E-02
 C   0.00000000       0.00000000       1.73210390E-02   0.00000000    
           2

 O   2.28699565       0.00000000       0.00000000       1.73210595E-02
 C   0.00000000       0.00000000       1.73210595E-02   0.00000000    
           2

 O   2.28699565       0.00000000       0.00000000       1.73210800E-02
 C   0.00000000       0.00000000       1.73210800E-02   0.00000000    
           2

 O   2.28699565       0.00000000       0.00000000       1.73211005E-02
 C   0.00000000       0.00000000       1.73211005E-02   0.00000000    
           2

 O   2.28699565       0.00000000       0.00000000       1.73211209E-02
 C   0.00000000       0.00000000       1.73211209E-02   0.00000000    
           2

 O   2.28699565       0.00000000       0.00000000       1.73211414E-02
 C   0.00000000       0.00000000       1.73211414E-02   0.00000000    
           2

 O   2.28699565       0.00000000       0.00000000       1.73211619E-02
 C   0.00000000       0.00000000       1.73211619E-02   0.00000000    
           2

 O   2.28699565       0.00000000       0.00000000       1.73211824E-02
 C   0.00000000       0.00000000       1.73211824E-02   0.00000000    
           2

 O   2.28699565       0.00000000       0.00000000       1.73212029E-02
 C   0.00000000       0.00000000       1.73212029E-02   0.00000000    
           2

 O   2.28699565       0.00000000       0.00000000       1.73212234E-02
 C   0.00000000       0.00000000       1.73212234E-02   0.00000000    
           2

 O   2.28699565       0.00000000       0.00000000       1.73211861E-02
 C   0.00000000       0.00000000       1.73211861E-02   0.00000000    
           2

 O   2.28699565       0.00000000       0.00000000       1.73211489E-02
 C   0.00000000       0.00000000       1.73211489E-02   0.00000000    
           2

 O   2.28699565       0.00000000       0.00000000       1.73211116E-02
 C   0.00000000       0.00000000       1.73211116E-02   0.00000000    
           2

 O   2.28699565       0.00000000       0.00000000       1.73210744E-02
 C   0.00000000       0.00000000       1.73210744E-02   0.00000000    
           2

 O   2.28699565       0.00000000       0.00000000       1.73210371E-02
 C   0.00000000       0.00000000       1.73210371E-02   0.00000000    
           2

 O   2.28699565       0.00000000       0.00000000       1.73209999E-02
 C   0.00000000       0.00000000       1.73209999E-02   0.00000000    
           2

 O   2.28699565       0.00000000       0.00000000       1.73210204E-02
 C   0.00000000       0.00000000       1.73210204E-02   0.00000000    
           2

 O   2.28699565       0.00000000       0.00000000       1.73210409E-02
 C   0.00000000       0.00000000       1.73210409E-02   0.00000000    
           2

 O   2.28699565       0.00000000       0.00000000       1.73210613E-02
 C   0.00000000       0.00000000       1.73210613E-02   0.00000000    
           2

 O   2.28699565       0.00000000       0.00000000       1.73210818E-02
 C   0.00000000       0.00000000       1.73210818E-02   0.00000000    
           2

 O   2.28699565       0.00000000       0.00000000       1.73211023E-02
 C   0.00000000       0.00000000       1.73211023E-02   0.00000000    
           2

 O   2.28699565       0.00000000       0.00000000       1.73211228E-02
 C   0.00000000       0.00000000       1.73211228E-02   0.00000000    
           2

 O   2.28699565       0.00000000       0.00000000       1.73211433E-02
 C   0.00000000       0.00000000       1.73211433E-02   0.00000000    
