           2

 O   3.25995302       0.00000000       0.00000000      -824.538269    
 C   0.00000000       0.00000000      -824.538269       0.00000000    
           2

 O   3.51990604       0.00000000       0.00000000      -824.884521    
 C   0.00000000       0.00000000      -824.884521       0.00000000    
           2

 O   3.77985907       0.00000000       0.00000000      -825.230774    
 C   0.00000000       0.00000000      -825.230774       0.00000000    
           2

 O   4.03981209       0.00000000       0.00000000      -825.577026    
 C   0.00000000       0.00000000      -825.577026       0.00000000    
           2

 O   4.29976511       0.00000000       0.00000000      -825.923279    
 C   0.00000000       0.00000000      -825.923279       0.00000000    
           2

 O   4.55971813       0.00000000       0.00000000      -826.269531    
 C   0.00000000       0.00000000      -826.269531       0.00000000    
           2

 O   4.81967115       0.00000000       0.00000000      -826.615784    
 C   0.00000000       0.00000000      -826.615784       0.00000000    
           2

 O   5.07962418       0.00000000       0.00000000      -826.962036    
 C   0.00000000       0.00000000      -826.962036       0.00000000    
           2

 O   5.33957720       0.00000000       0.00000000      -827.308289    
 C   0.00000000       0.00000000      -827.308289       0.00000000    
           2

 O   5.59953022       0.00000000       0.00000000      -827.654541    
 C   0.00000000       0.00000000      -827.654541       0.00000000    
           2

 O   5.85948324       0.00000000       0.00000000      -828.000793    
 C   0.00000000       0.00000000      -828.000793       0.00000000    
           2

 O   6.11943626       0.00000000       0.00000000      -828.347046    
 C   0.00000000       0.00000000      -828.347046       0.00000000    
           2

 O   6.37938929       0.00000000       0.00000000      -828.693298    
 C   0.00000000       0.00000000      -828.693298       0.00000000    
           2

 O   6.63934231       0.00000000       0.00000000      -829.039551    
 C   0.00000000       0.00000000      -829.039551       0.00000000    
           2

 O   6.89929533       0.00000000       0.00000000      -829.385803    
 C   0.00000000       0.00000000      -829.385803       0.00000000    
           2

 O   7.15924835       0.00000000       0.00000000      -829.732056    
 C   0.00000000       0.00000000      -829.732056       0.00000000    
           2

 O   7.41920137       0.00000000       0.00000000      -830.078308    
 C   0.00000000       0.00000000      -830.078308       0.00000000    
           2

 O   7.67915440       0.00000000       0.00000000      -830.424561    
 C   0.00000000       0.00000000      -830.424561       0.00000000    
           2

 O   7.93910742       0.00000000       0.00000000      -830.770813    
 C   0.00000000       0.00000000      -830.770813       0.00000000    
           2

 O   8.19906044       0.00000000       0.00000000      -831.117065    
 C   0.00000000       0.00000000      -831.117065       0.00000000    
           2

 O   8.45901299       0.00000000       0.00000000      -831.463318    
 C   0.00000000       0.00000000      -831.463318       0.00000000    
           2

 O   8.71896553       0.00000000       0.00000000      -831.809570    
 C   0.00000000       0.00000000      -831.809570       0.00000000    
           2

 O   8.97891808       0.00000000       0.00000000      -832.155823    
 C   0.00000000       0.00000000      -832.155823       0.00000000    
           2

 O   9.23887062       0.00000000       0.00000000      -832.502075    
 C   0.00000000       0.00000000      -832.502075       0.00000000    
           2

 O   9.49882317       0.00000000       0.00000000      -832.848328    
 C   0.00000000       0.00000000      -832.848328       0.00000000    
           2

 O   9.75877571       0.00000000       0.00000000      -833.194580    
 C   0.00000000       0.00000000      -833.194580       0.00000000    
           2

 O   10.0187283       0.00000000       0.00000000      -833.540833    
 C   0.00000000       0.00000000      -833.540833       0.00000000    
           2

 O   10.2786808       0.00000000       0.00000000      -833.887085    
 C   0.00000000       0.00000000      -833.887085       0.00000000    
           2

 O   10.5386333       0.00000000       0.00000000      -834.233337    
 C   0.00000000       0.00000000      -834.233337       0.00000000    
           2

 O   10.7985859       0.00000000       0.00000000      -834.579590    
 C   0.00000000       0.00000000      -834.579590       0.00000000    
           2

 O   11.0585384       0.00000000       0.00000000      -834.925842    
 C   0.00000000       0.00000000      -834.925842       0.00000000    
           2

 O   11.3184910       0.00000000       0.00000000      -835.272095    
 C   0.00000000       0.00000000      -835.272095       0.00000000    
           2

 O   11.5784435       0.00000000       0.00000000      -835.618347    
 C   0.00000000       0.00000000      -835.618347       0.00000000    
           2

 O   11.8383961       0.00000000       0.00000000      -835.964600    
 C   0.00000000       0.00000000      -835.964600       0.00000000    
           2

 O   12.0983486       0.00000000       0.00000000      -836.310852    
 C   0.00000000       0.00000000      -836.310852       0.00000000    
           2

 O   12.3583012       0.00000000       0.00000000      -836.657104    
 C   0.00000000       0.00000000      -836.657104       0.00000000    
           2

 O   12.6182537       0.00000000       0.00000000      -837.003357    
 C   0.00000000       0.00000000      -837.003357       0.00000000    
           2

 O   12.8782063       0.00000000       0.00000000      -837.349609    
 C   0.00000000       0.00000000      -837.349609       0.00000000    
           2

 O   13.1381588       0.00000000       0.00000000      -837.695862    
 C   0.00000000       0.00000000      -837.695862       0.00000000    
           2

 O   13.3981113       0.00000000       0.00000000      -838.042114    
 C   0.00000000       0.00000000      -838.042114       0.00000000    
           2

 O   13.6580639       0.00000000       0.00000000      -838.388367    
 C   0.00000000       0.00000000      -838.388367       0.00000000    
           2

 O   13.9180164       0.00000000       0.00000000      -838.734619    
 C   0.00000000       0.00000000      -838.734619       0.00000000    
           2

 O   14.1779690       0.00000000       0.00000000      -839.080872    
 C   0.00000000       0.00000000      -839.080872       0.00000000    
           2

 O   14.4379215       0.00000000       0.00000000      -839.427124    
 C   0.00000000       0.00000000      -839.427124       0.00000000    
           2

 O   14.6978741       0.00000000       0.00000000      -839.773376    
 C   0.00000000       0.00000000      -839.773376       0.00000000    
           2

 O   14.9578266       0.00000000       0.00000000      -840.119629    
 C   0.00000000       0.00000000      -840.119629       0.00000000    
           2

 O   15.2177792       0.00000000       0.00000000      -840.465881    
 C   0.00000000       0.00000000      -840.465881       0.00000000    
           2

 O   15.4777317       0.00000000       0.00000000      -840.812134    
 C   0.00000000       0.00000000      -840.812134       0.00000000    
           2

 O   15.7376842       0.00000000       0.00000000      -841.158386    
 C   0.00000000       0.00000000      -841.158386       0.00000000    
           2

 O   15.9976368       0.00000000       0.00000000      -841.504639    
 C   0.00000000       0.00000000      -841.504639       0.00000000    
           2

 O   16.2575893       0.00000000       0.00000000      -841.850891    
 C   0.00000000       0.00000000      -841.850891       0.00000000    
           2

 O   16.5175419       0.00000000       0.00000000      -842.197144    
 C   0.00000000       0.00000000      -842.197144       0.00000000    
           2

 O   16.7774944       0.00000000       0.00000000      -842.543396    
 C   0.00000000       0.00000000      -842.543396       0.00000000    
           2

 O   17.0374470       0.00000000       0.00000000      -842.889648    
 C   0.00000000       0.00000000      -842.889648       0.00000000    
           2

 O   17.2973995       0.00000000       0.00000000      -843.235901    
 C   0.00000000       0.00000000      -843.235901       0.00000000    
           2

 O   17.5573521       0.00000000       0.00000000      -843.582153    
 C   0.00000000       0.00000000      -843.582153       0.00000000    
           2

 O   17.8173046       0.00000000       0.00000000      -843.928406    
 C   0.00000000       0.00000000      -843.928406       0.00000000    
           2

 O   18.0772572       0.00000000       0.00000000      -844.274658    
 C   0.00000000       0.00000000      -844.274658       0.00000000    
           2

 O   18.3372097       0.00000000       0.00000000      -844.620911    
 C   0.00000000       0.00000000      -844.620911       0.00000000    
           2

 O   18.5971622       0.00000000       0.00000000      -844.967163    
 C   0.00000000       0.00000000      -844.967163       0.00000000    
           2

 O   18.8571148       0.00000000       0.00000000      -845.313416    
 C   0.00000000       0.00000000      -845.313416       0.00000000    
           2

 O   19.1170673       0.00000000       0.00000000      -845.659668    
 C   0.00000000       0.00000000      -845.659668       0.00000000    
           2

 O   19.3770199       0.00000000       0.00000000      -846.005920    
 C   0.00000000       0.00000000      -846.005920       0.00000000    
           2

 O   19.6369724       0.00000000       0.00000000      -846.352173    
 C   0.00000000       0.00000000      -846.352173       0.00000000    
           2

 O   19.8969250       0.00000000       0.00000000      -846.698425    
 C   0.00000000       0.00000000      -846.698425       0.00000000    
           2

 O   20.1568775       0.00000000       0.00000000      -847.044678    
 C   0.00000000       0.00000000      -847.044678       0.00000000    
           2

 O   20.4168301       0.00000000       0.00000000      -847.390930    
 C   0.00000000       0.00000000      -847.390930       0.00000000    
           2

 O   20.6767826       0.00000000       0.00000000      -847.737183    
 C   0.00000000       0.00000000      -847.737183       0.00000000    
           2

 O   20.9367352       0.00000000       0.00000000      -848.083435    
 C   0.00000000       0.00000000      -848.083435       0.00000000    
           2

 O   21.1966877       0.00000000       0.00000000      -848.429688    
 C   0.00000000       0.00000000      -848.429688       0.00000000    
           2

 O   21.4566402       0.00000000       0.00000000      -848.775940    
 C   0.00000000       0.00000000      -848.775940       0.00000000    
           2

 O   21.7165928       0.00000000       0.00000000      -849.122192    
 C   0.00000000       0.00000000      -849.122192       0.00000000    
           2

 O   21.9765453       0.00000000       0.00000000      -849.468445    
 C   0.00000000       0.00000000      -849.468445       0.00000000    
           2

 O   22.2364979       0.00000000       0.00000000      -849.814697    
 C   0.00000000       0.00000000      -849.814697       0.00000000    
           2

 O   22.4964504       0.00000000       0.00000000      -850.160950    
 C   0.00000000       0.00000000      -850.160950       0.00000000    
           2

 O   22.7564030       0.00000000       0.00000000      -850.507202    
 C   0.00000000       0.00000000      -850.507202       0.00000000    
           2

 O   23.0163555       0.00000000       0.00000000      -850.853455    
 C   0.00000000       0.00000000      -850.853455       0.00000000    
           2

 O   23.2763081       0.00000000       0.00000000      -851.199707    
 C   0.00000000       0.00000000      -851.199707       0.00000000    
           2

 O   23.5362606       0.00000000       0.00000000      -851.545959    
 C   0.00000000       0.00000000      -851.545959       0.00000000    
           2

 O   23.7962132       0.00000000       0.00000000      -851.892212    
 C   0.00000000       0.00000000      -851.892212       0.00000000    
           2

 O   24.0561657       0.00000000       0.00000000      -852.238464    
 C   0.00000000       0.00000000      -852.238464       0.00000000    
           2

 O   24.3161182       0.00000000       0.00000000      -852.584717    
 C   0.00000000       0.00000000      -852.584717       0.00000000    
           2

 O   24.5760708       0.00000000       0.00000000      -852.930969    
 C   0.00000000       0.00000000      -852.930969       0.00000000    
           2

 O   24.8360233       0.00000000       0.00000000      -853.277222    
 C   0.00000000       0.00000000      -853.277222       0.00000000    
           2

 O   25.0959759       0.00000000       0.00000000      -853.623474    
 C   0.00000000       0.00000000      -853.623474       0.00000000    
           2

 O   25.3559284       0.00000000       0.00000000      -853.969727    
 C   0.00000000       0.00000000      -853.969727       0.00000000    
           2

 O   25.6158810       0.00000000       0.00000000      -854.315979    
 C   0.00000000       0.00000000      -854.315979       0.00000000    
           2

 O   25.8758335       0.00000000       0.00000000      -854.662231    
 C   0.00000000       0.00000000      -854.662231       0.00000000    
           2

 O   26.1357861       0.00000000       0.00000000      -855.008484    
 C   0.00000000       0.00000000      -855.008484       0.00000000    
           2

 O   26.3957386       0.00000000       0.00000000      -855.354736    
 C   0.00000000       0.00000000      -855.354736       0.00000000    
           2

 O   26.6556911       0.00000000       0.00000000      -855.700989    
 C   0.00000000       0.00000000      -855.700989       0.00000000    
           2

 O   26.9156437       0.00000000       0.00000000      -856.047241    
 C   0.00000000       0.00000000      -856.047241       0.00000000    
           2

 O   27.1755962       0.00000000       0.00000000      -856.393494    
 C   0.00000000       0.00000000      -856.393494       0.00000000    
           2

 O   27.4355488       0.00000000       0.00000000      -856.739746    
 C   0.00000000       0.00000000      -856.739746       0.00000000    
           2

 O   27.6955013       0.00000000       0.00000000      -857.085999    
 C   0.00000000       0.00000000      -857.085999       0.00000000    
           2

 O   27.9554539       0.00000000       0.00000000      -857.432251    
 C   0.00000000       0.00000000      -857.432251       0.00000000    
           2

 O   28.2154064       0.00000000       0.00000000      -857.778503    
 C   0.00000000       0.00000000      -857.778503       0.00000000    
           2

 O   28.4753590       0.00000000       0.00000000      -858.124756    
 C   0.00000000       0.00000000      -858.124756       0.00000000    
           2

 O   28.7353115       0.00000000       0.00000000      -858.471008    
 C   0.00000000       0.00000000      -858.471008       0.00000000    
           2

 O   28.9952641       0.00000000       0.00000000      -858.817261    
 C   0.00000000       0.00000000      -858.817261       0.00000000    
