           2

 O   2.29907489       0.00000000       0.00000000       1.23204500E-03
 C   0.00000000       0.00000000       1.23204500E-03   0.00000000    
           2

 O   2.29660702       0.00000000       0.00000000       4.51932615E-03
 C   0.00000000       0.00000000       4.51932615E-03   0.00000000    
           2

 O   2.29292989       0.00000000       0.00000000       9.41729918E-03
 C   0.00000000       0.00000000       9.41729918E-03   0.00000000    
           2

 O   2.28853583       0.00000000       0.00000000       1.52702481E-02
 C   0.00000000       0.00000000       1.52702481E-02   0.00000000    
           2

 O   2.28401613       0.00000000       0.00000000       2.12903321E-02
 C   0.00000000       0.00000000       2.12903321E-02   0.00000000    
           2

 O   2.27998400       0.00000000       0.00000000       2.66610831E-02
 C   0.00000000       0.00000000       2.66610831E-02   0.00000000    
           2

 O   2.27698708       0.00000000       0.00000000       3.06530893E-02
 C   0.00000000       0.00000000       3.06530893E-02   0.00000000    
           2

 O   2.27542567       0.00000000       0.00000000       3.27330045E-02
 C   0.00000000       0.00000000       3.27330045E-02   0.00000000    
           2

 O   2.27549267       0.00000000       0.00000000       3.26438919E-02
 C   0.00000000       0.00000000       3.26438919E-02   0.00000000    
           2

 O   2.27714705       0.00000000       0.00000000       3.04401014E-02
 C   0.00000000       0.00000000       3.04401014E-02   0.00000000    
           2

 O   2.28012729       0.00000000       0.00000000       2.64704265E-02
 C   0.00000000       0.00000000       2.64704265E-02   0.00000000    
           2

 O   2.28399706       0.00000000       0.00000000       2.13158838E-02
 C   0.00000000       0.00000000       2.13158838E-02   0.00000000    
           2

 O   2.28821540       0.00000000       0.00000000       1.56970620E-02
 C   0.00000000       0.00000000       1.56970620E-02   0.00000000    
           2

 O   2.29221511       0.00000000       0.00000000       1.03695542E-02
 C   0.00000000       0.00000000       1.03695542E-02   0.00000000    
           2

 O   2.29547715       0.00000000       0.00000000       6.02444168E-03
 C   0.00000000       0.00000000       6.02444168E-03   0.00000000    
           2

 O   2.29759359       0.00000000       0.00000000       3.20546818E-03
 C   0.00000000       0.00000000       3.20546818E-03   0.00000000    
           2

 O   2.29831123       0.00000000       0.00000000       2.24951911E-03
 C   0.00000000       0.00000000       2.24951911E-03   0.00000000    
           2

 O   2.29755807       0.00000000       0.00000000       3.25263641E-03
 C   0.00000000       0.00000000       3.25263641E-03   0.00000000    
           2

 O   2.29544878       0.00000000       0.00000000       6.06204569E-03
 C   0.00000000       0.00000000       6.06204569E-03   0.00000000    
           2

 O   2.29227138       0.00000000       0.00000000       1.02943378E-02
 C   0.00000000       0.00000000       1.02943378E-02   0.00000000    
           2

 O   2.28845334       0.00000000       0.00000000       1.53800920E-02
 C   0.00000000       0.00000000       1.53800920E-02   0.00000000    
           2

 O   2.28450918       0.00000000       0.00000000       2.06337944E-02
 C   0.00000000       0.00000000       2.06337944E-02   0.00000000    
           2

 O   2.28097296       0.00000000       0.00000000       2.53440812E-02
 C   0.00000000       0.00000000       2.53440812E-02   0.00000000    
           2

 O   2.27832317       0.00000000       0.00000000       2.88736857E-02
 C   0.00000000       0.00000000       2.88736857E-02   0.00000000    
           2

 O   2.27691221       0.00000000       0.00000000       3.07529736E-02
 C   0.00000000       0.00000000       3.07529736E-02   0.00000000    
           2

 O   2.27691483       0.00000000       0.00000000       3.07493955E-02
 C   0.00000000       0.00000000       3.07493955E-02   0.00000000    
           2

 O   2.27830410       0.00000000       0.00000000       2.88988613E-02
 C   0.00000000       0.00000000       2.88988613E-02   0.00000000    
           2

 O   2.28086066       0.00000000       0.00000000       2.54934840E-02
 C   0.00000000       0.00000000       2.54934840E-02   0.00000000    
           2

 O   2.28421140       0.00000000       0.00000000       2.10302975E-02
 C   0.00000000       0.00000000       2.10302975E-02   0.00000000    
           2

 O   2.28788829       0.00000000       0.00000000       1.61328241E-02
 C   0.00000000       0.00000000       1.61328241E-02   0.00000000    
           2

 O   2.29139566       0.00000000       0.00000000       1.14609152E-02
 C   0.00000000       0.00000000       1.14609152E-02   0.00000000    
           2

 O   2.29427671       0.00000000       0.00000000       7.62326038E-03
 C   0.00000000       0.00000000       7.62326038E-03   0.00000000    
           2

 O   2.29616880       0.00000000       0.00000000       5.10316482E-03
 C   0.00000000       0.00000000       5.10316482E-03   0.00000000    
           2

 O   2.29684353       0.00000000       0.00000000       4.20433190E-03
 C   0.00000000       0.00000000       4.20433190E-03   0.00000000    
           2

 O   2.29623175       0.00000000       0.00000000       5.01910131E-03
 C   0.00000000       0.00000000       5.01910131E-03   0.00000000    
           2

 O   2.29442883       0.00000000       0.00000000       7.42046721E-03
 C   0.00000000       0.00000000       7.42046721E-03   0.00000000    
           2

 O   2.29168296       0.00000000       0.00000000       1.10779833E-02
 C   0.00000000       0.00000000       1.10779833E-02   0.00000000    
           2

 O   2.28836513       0.00000000       0.00000000       1.54973641E-02
 C   0.00000000       0.00000000       1.54973641E-02   0.00000000    
           2

 O   2.28492308       0.00000000       0.00000000       2.00821012E-02
 C   0.00000000       0.00000000       2.00821012E-02   0.00000000    
           2

 O   2.28182244       0.00000000       0.00000000       2.42122095E-02
 C   0.00000000       0.00000000       2.42122095E-02   0.00000000    
           2

 O   2.27948117       0.00000000       0.00000000       2.73306780E-02
 C   0.00000000       0.00000000       2.73306780E-02   0.00000000    
           2

 O   2.27820992       0.00000000       0.00000000       2.90240310E-02
 C   0.00000000       0.00000000       2.90240310E-02   0.00000000    
           2

 O   2.27816606       0.00000000       0.00000000       2.90824920E-02
 C   0.00000000       0.00000000       2.90824920E-02   0.00000000    
           2

 O   2.27933311       0.00000000       0.00000000       2.75280327E-02
 C   0.00000000       0.00000000       2.75280327E-02   0.00000000    
           2

 O   2.28152728       0.00000000       0.00000000       2.46055666E-02
 C   0.00000000       0.00000000       2.46055666E-02   0.00000000    
           2

 O   2.28442883       0.00000000       0.00000000       2.07405835E-02
 C   0.00000000       0.00000000       2.07405835E-02   0.00000000    
           2

 O   2.28763294       0.00000000       0.00000000       1.64726898E-02
 C   0.00000000       0.00000000       1.64726898E-02   0.00000000    
           2

 O   2.29070711       0.00000000       0.00000000       1.23778358E-02
 C   0.00000000       0.00000000       1.23778358E-02   0.00000000    
           2

 O   2.29324937       0.00000000       0.00000000       8.99150502E-03
 C   0.00000000       0.00000000       8.99150502E-03   0.00000000    
           2

 O   2.29493785       0.00000000       0.00000000       6.74256729E-03
 C   0.00000000       0.00000000       6.74256729E-03   0.00000000    
           2

 O   2.29556751       0.00000000       0.00000000       5.90399513E-03
 C   0.00000000       0.00000000       5.90399513E-03   0.00000000    
           2

 O   2.29507232       0.00000000       0.00000000       6.56362483E-03
 C   0.00000000       0.00000000       6.56362483E-03   0.00000000    
           2

 O   2.29353142       0.00000000       0.00000000       8.61620344E-03
 C   0.00000000       0.00000000       8.61620344E-03   0.00000000    
           2

 O   2.29115844       0.00000000       0.00000000       1.17771439E-02
 C   0.00000000       0.00000000       1.17771439E-02   0.00000000    
           2

 O   2.28827524       0.00000000       0.00000000       1.56175476E-02
 C   0.00000000       0.00000000       1.56175476E-02   0.00000000    
           2

 O   2.28527164       0.00000000       0.00000000       1.96183696E-02
 C   0.00000000       0.00000000       1.96183696E-02   0.00000000    
           2

 O   2.28255343       0.00000000       0.00000000       2.32391451E-02
 C   0.00000000       0.00000000       2.32391451E-02   0.00000000    
           2

 O   2.28048611       0.00000000       0.00000000       2.59928387E-02
 C   0.00000000       0.00000000       2.59928387E-02   0.00000000    
           2

 O   2.27934289       0.00000000       0.00000000       2.75154598E-02
 C   0.00000000       0.00000000       2.75154598E-02   0.00000000    
           2

 O   2.27926588       0.00000000       0.00000000       2.76181828E-02
 C   0.00000000       0.00000000       2.76181828E-02   0.00000000    
           2

 O   2.28024626       0.00000000       0.00000000       2.63124537E-02
 C   0.00000000       0.00000000       2.63124537E-02   0.00000000    
           2

 O   2.28212976       0.00000000       0.00000000       2.38037929E-02
 C   0.00000000       0.00000000       2.38037929E-02   0.00000000    
           2

 O   2.28464270       0.00000000       0.00000000       2.04566438E-02
 C   0.00000000       0.00000000       2.04566438E-02   0.00000000    
           2

 O   2.28743434       0.00000000       0.00000000       1.67380497E-02
 C   0.00000000       0.00000000       1.67380497E-02   0.00000000    
           2

 O   2.29012775       0.00000000       0.00000000       1.31504759E-02
 C   0.00000000       0.00000000       1.31504759E-02   0.00000000    
           2

 O   2.29236937       0.00000000       0.00000000       1.01645840E-02
 C   0.00000000       0.00000000       1.01645840E-02   0.00000000    
           2

 O   2.29387403       0.00000000       0.00000000       8.16037413E-03
 C   0.00000000       0.00000000       8.16037413E-03   0.00000000    
           2

 O   2.29445791       0.00000000       0.00000000       7.38269975E-03
 C   0.00000000       0.00000000       7.38269975E-03   0.00000000    
           2

 O   2.29405880       0.00000000       0.00000000       7.91436154E-03
 C   0.00000000       0.00000000       7.91436154E-03   0.00000000    
           2

 O   2.29274201       0.00000000       0.00000000       9.66841169E-03
 C   0.00000000       0.00000000       9.66841169E-03   0.00000000    
           2

 O   2.29069114       0.00000000       0.00000000       1.24000125E-02
 C   0.00000000       0.00000000       1.24000125E-02   0.00000000    
           2

 O   2.28818583       0.00000000       0.00000000       1.57371443E-02
 C   0.00000000       0.00000000       1.57371443E-02   0.00000000    
           2

 O   2.28556490       0.00000000       0.00000000       1.92281883E-02
 C   0.00000000       0.00000000       1.92281883E-02   0.00000000    
           2

 O   2.28318214       0.00000000       0.00000000       2.24019084E-02
 C   0.00000000       0.00000000       2.24019084E-02   0.00000000    
           2

 O   2.28135753       0.00000000       0.00000000       2.48323269E-02
 C   0.00000000       0.00000000       2.48323269E-02   0.00000000    
           2

 O   2.28033137       0.00000000       0.00000000       2.61990018E-02
 C   0.00000000       0.00000000       2.61990018E-02   0.00000000    
           2

 O   2.28023124       0.00000000       0.00000000       2.63322983E-02
 C   0.00000000       0.00000000       2.63322983E-02   0.00000000    
           2

 O   2.28105450       0.00000000       0.00000000       2.52357647E-02
 C   0.00000000       0.00000000       2.52357647E-02   0.00000000    
           2

 O   2.28267145       0.00000000       0.00000000       2.30819248E-02
 C   0.00000000       0.00000000       2.30819248E-02   0.00000000    
           2

 O   2.28484774       0.00000000       0.00000000       2.01831050E-02
 C   0.00000000       0.00000000       2.01831050E-02   0.00000000    
           2

 O   2.28727984       0.00000000       0.00000000       1.69435404E-02
 C   0.00000000       0.00000000       1.69435404E-02   0.00000000    
           2

 O   2.28963876       0.00000000       0.00000000       1.38014732E-02
 C   0.00000000       0.00000000       1.38014732E-02   0.00000000    
           2

 O   2.29161406       0.00000000       0.00000000       1.11702662E-02
 C   0.00000000       0.00000000       1.11702662E-02   0.00000000    
           2

 O   2.29295349       0.00000000       0.00000000       9.38620791E-03
 C   0.00000000       0.00000000       9.38620791E-03   0.00000000    
           2

 O   2.29349232       0.00000000       0.00000000       8.66850000E-03
 C   0.00000000       0.00000000       8.66850000E-03   0.00000000    
           2

 O   2.29317236       0.00000000       0.00000000       9.09469929E-03
 C   0.00000000       0.00000000       9.09469929E-03   0.00000000    
           2

 O   2.29204726       0.00000000       0.00000000       1.05932783E-02
 C   0.00000000       0.00000000       1.05932783E-02   0.00000000    
           2

 O   2.29027510       0.00000000       0.00000000       1.29537098E-02
 C   0.00000000       0.00000000       1.29537098E-02   0.00000000    
           2

 O   2.28809810       0.00000000       0.00000000       1.58534441E-02
 C   0.00000000       0.00000000       1.58534441E-02   0.00000000    
           2

 O   2.28581119       0.00000000       0.00000000       1.88995618E-02
 C   0.00000000       0.00000000       1.88995618E-02   0.00000000    
           2

 O   2.28372288       0.00000000       0.00000000       2.16811262E-02
 C   0.00000000       0.00000000       2.16811262E-02   0.00000000    
           2

 O   2.28211308       0.00000000       0.00000000       2.38254853E-02
 C   0.00000000       0.00000000       2.38254853E-02   0.00000000    
           2

 O   2.28119349       0.00000000       0.00000000       2.50504985E-02
 C   0.00000000       0.00000000       2.50504985E-02   0.00000000    
           2

 O   2.28107834       0.00000000       0.00000000       2.52040047E-02
 C   0.00000000       0.00000000       2.52040047E-02   0.00000000    
           2

 O   2.28176928       0.00000000       0.00000000       2.42837109E-02
 C   0.00000000       0.00000000       2.42837109E-02   0.00000000    
           2

 O   2.28315759       0.00000000       0.00000000       2.24344898E-02
 C   0.00000000       0.00000000       2.24344898E-02   0.00000000    
           2

 O   2.28504229       0.00000000       0.00000000       1.99240744E-02
 C   0.00000000       0.00000000       1.99240744E-02   0.00000000    
           2

 O   2.28716063       0.00000000       0.00000000       1.71023812E-02
 C   0.00000000       0.00000000       1.71023812E-02   0.00000000    
           2

 O   2.28922582       0.00000000       0.00000000       1.43514723E-02
 C   0.00000000       0.00000000       1.43514723E-02   0.00000000    
           2

 O   2.29096556       0.00000000       0.00000000       1.20341424E-02
 C   0.00000000       0.00000000       1.20341424E-02   0.00000000    
           2

 O   2.29215670       0.00000000       0.00000000       1.04476772E-02
 C   0.00000000       0.00000000       1.04476772E-02   0.00000000    
           2

 O   2.29265189       0.00000000       0.00000000       9.78799723E-03
 C   0.00000000       0.00000000       9.78799723E-03   0.00000000    
           2

 O   2.29239702       0.00000000       0.00000000       1.01273246E-02
 C   0.00000000       0.00000000       1.01273246E-02   0.00000000    
           2

 O   2.29143620       0.00000000       0.00000000       1.14070671E-02
 C   0.00000000       0.00000000       1.14070671E-02   0.00000000    
           2

 O   2.28990507       0.00000000       0.00000000       1.34463748E-02
 C   0.00000000       0.00000000       1.34463748E-02   0.00000000    
           2

 O   2.28801370       0.00000000       0.00000000       1.59657039E-02
 C   0.00000000       0.00000000       1.59657039E-02   0.00000000    
           2

 O   2.28601837       0.00000000       0.00000000       1.86233073E-02
 C   0.00000000       0.00000000       1.86233073E-02   0.00000000    
           2

 O   2.28418851       0.00000000       0.00000000       2.10607853E-02
 C   0.00000000       0.00000000       2.10607853E-02   0.00000000    
           2

 O   2.28276873       0.00000000       0.00000000       2.29520630E-02
 C   0.00000000       0.00000000       2.29520630E-02   0.00000000    
           2

 O   2.28194547       0.00000000       0.00000000       2.40487624E-02
 C   0.00000000       0.00000000       2.40487624E-02   0.00000000    
           2

 O   2.28182101       0.00000000       0.00000000       2.42145136E-02
 C   0.00000000       0.00000000       2.42145136E-02   0.00000000    
           2

 O   2.28240037       0.00000000       0.00000000       2.34427694E-02
 C   0.00000000       0.00000000       2.34427694E-02   0.00000000    
           2

 O   2.28359222       0.00000000       0.00000000       2.18551438E-02
 C   0.00000000       0.00000000       2.18551438E-02   0.00000000    
           2

 O   2.28522420       0.00000000       0.00000000       1.96812134E-02
 C   0.00000000       0.00000000       1.96812134E-02   0.00000000    
           2

 O   2.28706908       0.00000000       0.00000000       1.72238722E-02
 C   0.00000000       0.00000000       1.72238722E-02   0.00000000    
           2

 O   2.28887677       0.00000000       0.00000000       1.48161277E-02
 C   0.00000000       0.00000000       1.48161277E-02   0.00000000    
           2

 O   2.29040837       0.00000000       0.00000000       1.27761988E-02
 C   0.00000000       0.00000000       1.27761988E-02   0.00000000    
           2

 O   2.29146647       0.00000000       0.00000000       1.13666635E-02
 C   0.00000000       0.00000000       1.13666635E-02   0.00000000    
           2

 O   2.29192019       0.00000000       0.00000000       1.07623814E-02
 C   0.00000000       0.00000000       1.07623814E-02   0.00000000    
           2

 O   2.29171896       0.00000000       0.00000000       1.10302884E-02
 C   0.00000000       0.00000000       1.10302884E-02   0.00000000    
           2

 O   2.29089880       0.00000000       0.00000000       1.21226404E-02
 C   0.00000000       0.00000000       1.21226404E-02   0.00000000    
           2

 O   2.28957629       0.00000000       0.00000000       1.38842203E-02
 C   0.00000000       0.00000000       1.38842203E-02   0.00000000    
           2

 O   2.28793311       0.00000000       0.00000000       1.60728823E-02
 C   0.00000000       0.00000000       1.60728823E-02   0.00000000    
           2

 O   2.28619242       0.00000000       0.00000000       1.83913726E-02
 C   0.00000000       0.00000000       1.83913726E-02   0.00000000    
           2

 O   2.28458905       0.00000000       0.00000000       2.05271076E-02
 C   0.00000000       0.00000000       2.05271076E-02   0.00000000    
           2

 O   2.28333712       0.00000000       0.00000000       2.21947338E-02
 C   0.00000000       0.00000000       2.21947338E-02   0.00000000    
           2

 O   2.28260088       0.00000000       0.00000000       2.31755488E-02
 C   0.00000000       0.00000000       2.31755488E-02   0.00000000    
           2

 O   2.28247190       0.00000000       0.00000000       2.33474988E-02
 C   0.00000000       0.00000000       2.33474988E-02   0.00000000    
           2

 O   2.28295732       0.00000000       0.00000000       2.27009859E-02
 C   0.00000000       0.00000000       2.27009859E-02   0.00000000    
           2

 O   2.28398061       0.00000000       0.00000000       2.13380679E-02
 C   0.00000000       0.00000000       2.13380679E-02   0.00000000    
           2

 O   2.28539371       0.00000000       0.00000000       1.94556732E-02
 C   0.00000000       0.00000000       1.94556732E-02   0.00000000    
           2

 O   2.28700018       0.00000000       0.00000000       1.73159782E-02
 C   0.00000000       0.00000000       1.73159782E-02   0.00000000    
           2

 O   2.28858185       0.00000000       0.00000000       1.52091980E-02
 C   0.00000000       0.00000000       1.52091980E-02   0.00000000    
           2

 O   2.28992939       0.00000000       0.00000000       1.34142851E-02
 C   0.00000000       0.00000000       1.34142851E-02   0.00000000    
           2

 O   2.29086876       0.00000000       0.00000000       1.21629443E-02
 C   0.00000000       0.00000000       1.21629443E-02   0.00000000    
           2

 O   2.29128313       0.00000000       0.00000000       1.16110314E-02
 C   0.00000000       0.00000000       1.16110314E-02   0.00000000    
           2

 O   2.29112601       0.00000000       0.00000000       1.18203470E-02
 C   0.00000000       0.00000000       1.18203470E-02   0.00000000    
           2

 O   2.29042649       0.00000000       0.00000000       1.27522107E-02
 C   0.00000000       0.00000000       1.27522107E-02   0.00000000    
           2

 O   2.28928423       0.00000000       0.00000000       1.42735541E-02
 C   0.00000000       0.00000000       1.42735541E-02   0.00000000    
           2

 O   2.28785706       0.00000000       0.00000000       1.61746759E-02
 C   0.00000000       0.00000000       1.61746759E-02   0.00000000    
           2

 O   2.28633881       0.00000000       0.00000000       1.81971155E-02
 C   0.00000000       0.00000000       1.81971155E-02   0.00000000    
           2

 O   2.28493404       0.00000000       0.00000000       2.00682487E-02
 C   0.00000000       0.00000000       2.00682487E-02   0.00000000    
           2

 O   2.28383040       0.00000000       0.00000000       2.15383116E-02
 C   0.00000000       0.00000000       2.15383116E-02   0.00000000    
           2

 O   2.28317237       0.00000000       0.00000000       2.24147383E-02
 C   0.00000000       0.00000000       2.24147383E-02   0.00000000    
           2

 O   2.28304195       0.00000000       0.00000000       2.25883350E-02
 C   0.00000000       0.00000000       2.25883350E-02   0.00000000    
           2

 O   2.28344798       0.00000000       0.00000000       2.20474079E-02
 C   0.00000000       0.00000000       2.20474079E-02   0.00000000    
           2

 O   2.28432631       0.00000000       0.00000000       2.08775774E-02
 C   0.00000000       0.00000000       2.08775774E-02   0.00000000    
           2

 O   2.28554988       0.00000000       0.00000000       1.92477442E-02
 C   0.00000000       0.00000000       1.92477442E-02   0.00000000    
           2

 O   2.28694844       0.00000000       0.00000000       1.73848644E-02
 C   0.00000000       0.00000000       1.73848644E-02   0.00000000    
           2

 O   2.28833222       0.00000000       0.00000000       1.55417640E-02
 C   0.00000000       0.00000000       1.55417640E-02   0.00000000    
           2

 O   2.28951764       0.00000000       0.00000000       1.39628882E-02
 C   0.00000000       0.00000000       1.39628882E-02   0.00000000    
           2

 O   2.29035115       0.00000000       0.00000000       1.28525868E-02
 C   0.00000000       0.00000000       1.28525868E-02   0.00000000    
           2

 O   2.29072881       0.00000000       0.00000000       1.23496698E-02
 C   0.00000000       0.00000000       1.23496698E-02   0.00000000    
           2

 O   2.29060769       0.00000000       0.00000000       1.25110047E-02
 C   0.00000000       0.00000000       1.25110047E-02   0.00000000    
           2

 O   2.29001117       0.00000000       0.00000000       1.33054880E-02
 C   0.00000000       0.00000000       1.33054880E-02   0.00000000    
           2

 O   2.28902507       0.00000000       0.00000000       1.46191036E-02
 C   0.00000000       0.00000000       1.46191036E-02   0.00000000    
           2

 O   2.28778529       0.00000000       0.00000000       1.62703637E-02
 C   0.00000000       0.00000000       1.62703637E-02   0.00000000    
           2

 O   2.28646088       0.00000000       0.00000000       1.80345271E-02
 C   0.00000000       0.00000000       1.80345271E-02   0.00000000    
           2

 O   2.28523016       0.00000000       0.00000000       1.96737610E-02
 C   0.00000000       0.00000000       1.96737610E-02   0.00000000    
           2

 O   2.28425741       0.00000000       0.00000000       2.09694430E-02
 C   0.00000000       0.00000000       2.09694430E-02   0.00000000    
           2

 O   2.28366995       0.00000000       0.00000000       2.17519589E-02
 C   0.00000000       0.00000000       2.17519589E-02   0.00000000    
           2

 O   2.28354096       0.00000000       0.00000000       2.19237488E-02
 C   0.00000000       0.00000000       2.19237488E-02   0.00000000    
           2

 O   2.28388023       0.00000000       0.00000000       2.14717723E-02
 C   0.00000000       0.00000000       2.14717723E-02   0.00000000    
           2

 O   2.28463387       0.00000000       0.00000000       2.04678215E-02
 C   0.00000000       0.00000000       2.04678215E-02   0.00000000    
           2

 O   2.28569317       0.00000000       0.00000000       1.90567654E-02
 C   0.00000000       0.00000000       1.90567654E-02   0.00000000    
           2

 O   2.28691077       0.00000000       0.00000000       1.74350757E-02
 C   0.00000000       0.00000000       1.74350757E-02   0.00000000    
           2

 O   2.28812099       0.00000000       0.00000000       1.58229601E-02
 C   0.00000000       0.00000000       1.58229601E-02   0.00000000    
           2

 O   2.28916335       0.00000000       0.00000000       1.44345462E-02
 C   0.00000000       0.00000000       1.44345462E-02   0.00000000    
           2

 O   2.28990245       0.00000000       0.00000000       1.34499613E-02
 C   0.00000000       0.00000000       1.34499613E-02   0.00000000    
           2

 O   2.29024577       0.00000000       0.00000000       1.29927229E-02
 C   0.00000000       0.00000000       1.29927229E-02   0.00000000    
           2

 O   2.29015398       0.00000000       0.00000000       1.31149665E-02
 C   0.00000000       0.00000000       1.31149665E-02   0.00000000    
           2

 O   2.28964567       0.00000000       0.00000000       1.37918852E-02
 C   0.00000000       0.00000000       1.37918852E-02   0.00000000    
           2

 O   2.28879428       0.00000000       0.00000000       1.49258599E-02
 C   0.00000000       0.00000000       1.49258599E-02   0.00000000    
           2

 O   2.28771758       0.00000000       0.00000000       1.63598601E-02
 C   0.00000000       0.00000000       1.63598601E-02   0.00000000    
           2

 O   2.28656244       0.00000000       0.00000000       1.78985037E-02
 C   0.00000000       0.00000000       1.78985037E-02   0.00000000    
           2

 O   2.28548455       0.00000000       0.00000000       1.93343535E-02
 C   0.00000000       0.00000000       1.93343535E-02   0.00000000    
           2

 O   2.28462744       0.00000000       0.00000000       2.04760097E-02
 C   0.00000000       0.00000000       2.04760097E-02   0.00000000    
           2

 O   2.28410339       0.00000000       0.00000000       2.11741664E-02
 C   0.00000000       0.00000000       2.11741664E-02   0.00000000    
           2

 O   2.28397775       0.00000000       0.00000000       2.13416554E-02
 C   0.00000000       0.00000000       2.13416554E-02   0.00000000    
           2

 O   2.28426075       0.00000000       0.00000000       2.09646709E-02
 C   0.00000000       0.00000000       2.09646709E-02   0.00000000    
           2

 O   2.28490734       0.00000000       0.00000000       2.01033428E-02
 C   0.00000000       0.00000000       2.01033428E-02   0.00000000    
           2

 O   2.28582430       0.00000000       0.00000000       1.88819543E-02
 C   0.00000000       0.00000000       1.88819543E-02   0.00000000    
           2

 O   2.28688383       0.00000000       0.00000000       1.74705219E-02
 C   0.00000000       0.00000000       1.74705219E-02   0.00000000    
           2

 O   2.28794217       0.00000000       0.00000000       1.60608366E-02
 C   0.00000000       0.00000000       1.60608366E-02   0.00000000    
           2

 O   2.28885841       0.00000000       0.00000000       1.48403831E-02
 C   0.00000000       0.00000000       1.48403831E-02   0.00000000    
           2

 O   2.28951359       0.00000000       0.00000000       1.39678279E-02
 C   0.00000000       0.00000000       1.39678279E-02   0.00000000    
           2

 O   2.28982496       0.00000000       0.00000000       1.35529814E-02
 C   0.00000000       0.00000000       1.35529814E-02   0.00000000    
           2

 O   2.28975701       0.00000000       0.00000000       1.36435190E-02
 C   0.00000000       0.00000000       1.36435190E-02   0.00000000    
           2

 O   2.28932428       0.00000000       0.00000000       1.42198373E-02
 C   0.00000000       0.00000000       1.42198373E-02   0.00000000    
           2

 O   2.28858948       0.00000000       0.00000000       1.51984561E-02
 C   0.00000000       0.00000000       1.51984561E-02   0.00000000    
           2

 O   2.28765464       0.00000000       0.00000000       1.64435711E-02
 C   0.00000000       0.00000000       1.64435711E-02   0.00000000    
           2

 O   2.28664732       0.00000000       0.00000000       1.77853592E-02
 C   0.00000000       0.00000000       1.77853592E-02   0.00000000    
           2

 O   2.28570318       0.00000000       0.00000000       1.90429054E-02
 C   0.00000000       0.00000000       1.90429054E-02   0.00000000    
           2

 O   2.28494811       0.00000000       0.00000000       2.00486351E-02
 C   0.00000000       0.00000000       2.00486351E-02   0.00000000    
           2

 O   2.28448081       0.00000000       0.00000000       2.06710771E-02
 C   0.00000000       0.00000000       2.06710771E-02   0.00000000    
           2

 O   2.28435969       0.00000000       0.00000000       2.08324380E-02
 C   0.00000000       0.00000000       2.08324380E-02   0.00000000    
           2

 O   2.28459525       0.00000000       0.00000000       2.05185544E-02
 C   0.00000000       0.00000000       2.05185544E-02   0.00000000    
           2

 O   2.28514981       0.00000000       0.00000000       1.97797418E-02
 C   0.00000000       0.00000000       1.97797418E-02   0.00000000    
           2

 O   2.28594351       0.00000000       0.00000000       1.87225975E-02
 C   0.00000000       0.00000000       1.87225975E-02   0.00000000    
           2

 O   2.28686571       0.00000000       0.00000000       1.74942855E-02
 C   0.00000000       0.00000000       1.74942855E-02   0.00000000    
           2

 O   2.28779101       0.00000000       0.00000000       1.62617993E-02
 C   0.00000000       0.00000000       1.62617993E-02   0.00000000    
           2

 O   2.28859615       0.00000000       0.00000000       1.51892742E-02
 C   0.00000000       0.00000000       1.51892742E-02   0.00000000    
           2

 O   2.28917646       0.00000000       0.00000000       1.44163920E-02
 C   0.00000000       0.00000000       1.44163920E-02   0.00000000    
           2

 O   2.28945851       0.00000000       0.00000000       1.40406759E-02
 C   0.00000000       0.00000000       1.40406759E-02   0.00000000    
           2

 O   2.28940964       0.00000000       0.00000000       1.41056320E-02
 C   0.00000000       0.00000000       1.41056320E-02   0.00000000    
           2

 O   2.28904152       0.00000000       0.00000000       1.45959537E-02
 C   0.00000000       0.00000000       1.45959537E-02   0.00000000    
           2

 O   2.28840756       0.00000000       0.00000000       1.54403113E-02
 C   0.00000000       0.00000000       1.54403113E-02   0.00000000    
           2

 O   2.28759599       0.00000000       0.00000000       1.65212881E-02
 C   0.00000000       0.00000000       1.65212881E-02   0.00000000    
           2

 O   2.28671765       0.00000000       0.00000000       1.76913179E-02
 C   0.00000000       0.00000000       1.76913179E-02   0.00000000    
           2

 O   2.28589082       0.00000000       0.00000000       1.87926013E-02
 C   0.00000000       0.00000000       1.87926013E-02   0.00000000    
           2

 O   2.28522587       0.00000000       0.00000000       1.96784437E-02
 C   0.00000000       0.00000000       1.96784437E-02   0.00000000    
           2

 O   2.28480959       0.00000000       0.00000000       2.02330817E-02
 C   0.00000000       0.00000000       2.02330817E-02   0.00000000    
           2

 O   2.28469396       0.00000000       0.00000000       2.03871280E-02
 C   0.00000000       0.00000000       2.03871280E-02   0.00000000    
           2

 O   2.28488970       0.00000000       0.00000000       2.01263968E-02
 C   0.00000000       0.00000000       2.01263968E-02   0.00000000    
           2

 O   2.28536534       0.00000000       0.00000000       1.94929410E-02
 C   0.00000000       0.00000000       1.94929410E-02   0.00000000    
           2

 O   2.28605223       0.00000000       0.00000000       1.85781661E-02
 C   0.00000000       0.00000000       1.85781661E-02   0.00000000    
           2

 O   2.28685451       0.00000000       0.00000000       1.75094511E-02
 C   0.00000000       0.00000000       1.75094511E-02   0.00000000    
           2

 O   2.28766322       0.00000000       0.00000000       1.64321810E-02
 C   0.00000000       0.00000000       1.64321810E-02   0.00000000    
           2

 O   2.28837061       0.00000000       0.00000000       1.54899359E-02
 C   0.00000000       0.00000000       1.54899359E-02   0.00000000    
           2

 O   2.28888440       0.00000000       0.00000000       1.48056597E-02
 C   0.00000000       0.00000000       1.48056597E-02   0.00000000    
           2

 O   2.28913951       0.00000000       0.00000000       1.44659253E-02
 C   0.00000000       0.00000000       1.44659253E-02   0.00000000    
           2

 O   2.28910613       0.00000000       0.00000000       1.45103419E-02
 C   0.00000000       0.00000000       1.45103419E-02   0.00000000    
           2

 O   2.28879333       0.00000000       0.00000000       1.49271395E-02
 C   0.00000000       0.00000000       1.49271395E-02   0.00000000    
           2

 O   2.28824663       0.00000000       0.00000000       1.56554114E-02
 C   0.00000000       0.00000000       1.56554114E-02   0.00000000    
           2

 O   2.28754210       0.00000000       0.00000000       1.65937077E-02
 C   0.00000000       0.00000000       1.65937077E-02   0.00000000    
           2

 O   2.28677630       0.00000000       0.00000000       1.76138058E-02
 C   0.00000000       0.00000000       1.76138058E-02   0.00000000    
           2

 O   2.28605223       0.00000000       0.00000000       1.85781140E-02
 C   0.00000000       0.00000000       1.85781140E-02   0.00000000    
           2

 O   2.28546667       0.00000000       0.00000000       1.93581842E-02
 C   0.00000000       0.00000000       1.93581842E-02   0.00000000    
           2

 O   2.28509593       0.00000000       0.00000000       1.98521093E-02
 C   0.00000000       0.00000000       1.98521093E-02   0.00000000    
           2

 O   2.28498650       0.00000000       0.00000000       1.99979991E-02
 C   0.00000000       0.00000000       1.99979991E-02   0.00000000    
           2

 O   2.28514862       0.00000000       0.00000000       1.97819062E-02
 C   0.00000000       0.00000000       1.97819062E-02   0.00000000    
           2

 O   2.28555632       0.00000000       0.00000000       1.92389116E-02
 C   0.00000000       0.00000000       1.92389116E-02   0.00000000    
           2

 O   2.28615046       0.00000000       0.00000000       1.84474196E-02
 C   0.00000000       0.00000000       1.84474196E-02   0.00000000    
           2

 O   2.28684855       0.00000000       0.00000000       1.75176300E-02
 C   0.00000000       0.00000000       1.75176300E-02   0.00000000    
           2

 O   2.28755546       0.00000000       0.00000000       1.65760946E-02
 C   0.00000000       0.00000000       1.65760946E-02   0.00000000    
           2

 O   2.28817677       0.00000000       0.00000000       1.57484412E-02
 C   0.00000000       0.00000000       1.57484412E-02   0.00000000    
           2

 O   2.28863144       0.00000000       0.00000000       1.51428320E-02
 C   0.00000000       0.00000000       1.51428320E-02   0.00000000    
           2

 O   2.28886175       0.00000000       0.00000000       1.48360599E-02
 C   0.00000000       0.00000000       1.48360599E-02   0.00000000    
           2

 O   2.28884077       0.00000000       0.00000000       1.48641123E-02
 C   0.00000000       0.00000000       1.48641123E-02   0.00000000    
           2

 O   2.28857493       0.00000000       0.00000000       1.52181080E-02
 C   0.00000000       0.00000000       1.52181080E-02   0.00000000    
           2

 O   2.28810358       0.00000000       0.00000000       1.58460941E-02
 C   0.00000000       0.00000000       1.58460941E-02   0.00000000    
           2

 O   2.28749228       0.00000000       0.00000000       1.66604389E-02
 C   0.00000000       0.00000000       1.66604389E-02   0.00000000    
           2

 O   2.28682470       0.00000000       0.00000000       1.75497681E-02
 C   0.00000000       0.00000000       1.75497681E-02   0.00000000    
           2

 O   2.28619075       0.00000000       0.00000000       1.83940828E-02
 C   0.00000000       0.00000000       1.83940828E-02   0.00000000    
           2

 O   2.28567505       0.00000000       0.00000000       1.90809406E-02
 C   0.00000000       0.00000000       1.90809406E-02   0.00000000    
           2

 O   2.28534508       0.00000000       0.00000000       1.95205919E-02
 C   0.00000000       0.00000000       1.95205919E-02   0.00000000    
           2

 O   2.28524208       0.00000000       0.00000000       1.96579099E-02
 C   0.00000000       0.00000000       1.96579099E-02   0.00000000    
           2

 O   2.28537607       0.00000000       0.00000000       1.94793437E-02
 C   0.00000000       0.00000000       1.94793437E-02   0.00000000    
           2

 O   2.28572536       0.00000000       0.00000000       1.90141071E-02
 C   0.00000000       0.00000000       1.90141071E-02   0.00000000    
           2

 O   2.28623939       0.00000000       0.00000000       1.83294173E-02
 C   0.00000000       0.00000000       1.83294173E-02   0.00000000    
