           2

 O   2.40398121       0.00000000       0.00000000      -339.595398    
 C   0.00000000       0.00000000      -339.595398       0.00000000    
           2

 O   2.50796247       0.00000000       0.00000000      -339.733887    
 C   0.00000000       0.00000000      -339.733887       0.00000000    
           2

 O   2.61194372       0.00000000       0.00000000      -339.872375    
 C   0.00000000       0.00000000      -339.872375       0.00000000    
           2

 O   2.71592498       0.00000000       0.00000000      -340.010864    
 C   0.00000000       0.00000000      -340.010864       0.00000000    
           2

 O   2.81990623       0.00000000       0.00000000      -340.149353    
 C   0.00000000       0.00000000      -340.149353       0.00000000    
           2

 O   2.92388749       0.00000000       0.00000000      -340.287842    
 C   0.00000000       0.00000000      -340.287842       0.00000000    
           2

 O   3.02786875       0.00000000       0.00000000      -340.426331    
 C   0.00000000       0.00000000      -340.426331       0.00000000    
           2

 O   3.13185000       0.00000000       0.00000000      -340.564819    
 C   0.00000000       0.00000000      -340.564819       0.00000000    
           2

 O   3.23583126       0.00000000       0.00000000      -340.703308    
 C   0.00000000       0.00000000      -340.703308       0.00000000    
           2

 O   3.33981252       0.00000000       0.00000000      -340.841797    
 C   0.00000000       0.00000000      -340.841797       0.00000000    
           2

 O   3.44379377       0.00000000       0.00000000      -340.980286    
 C   0.00000000       0.00000000      -340.980286       0.00000000    
           2

 O   3.54777503       0.00000000       0.00000000      -341.118774    
 C   0.00000000       0.00000000      -341.118774       0.00000000    
           2

 O   3.65175629       0.00000000       0.00000000      -341.257263    
 C   0.00000000       0.00000000      -341.257263       0.00000000    
           2

 O   3.75573754       0.00000000       0.00000000      -341.395752    
 C   0.00000000       0.00000000      -341.395752       0.00000000    
           2

 O   3.85971880       0.00000000       0.00000000      -341.534241    
 C   0.00000000       0.00000000      -341.534241       0.00000000    
           2

 O   3.96370006       0.00000000       0.00000000      -341.672729    
 C   0.00000000       0.00000000      -341.672729       0.00000000    
           2

 O   4.06768131       0.00000000       0.00000000      -341.811218    
 C   0.00000000       0.00000000      -341.811218       0.00000000    
           2

 O   4.17166233       0.00000000       0.00000000      -341.949707    
 C   0.00000000       0.00000000      -341.949707       0.00000000    
           2

 O   4.27564335       0.00000000       0.00000000      -342.088196    
 C   0.00000000       0.00000000      -342.088196       0.00000000    
           2

 O   4.37962437       0.00000000       0.00000000      -342.226685    
 C   0.00000000       0.00000000      -342.226685       0.00000000    
           2

 O   4.48360538       0.00000000       0.00000000      -342.365173    
 C   0.00000000       0.00000000      -342.365173       0.00000000    
           2

 O   4.58758640       0.00000000       0.00000000      -342.503662    
 C   0.00000000       0.00000000      -342.503662       0.00000000    
           2

 O   4.69156742       0.00000000       0.00000000      -342.642151    
 C   0.00000000       0.00000000      -342.642151       0.00000000    
           2

 O   4.79554844       0.00000000       0.00000000      -342.780640    
 C   0.00000000       0.00000000      -342.780640       0.00000000    
           2

 O   4.89952946       0.00000000       0.00000000      -342.919128    
 C   0.00000000       0.00000000      -342.919128       0.00000000    
           2

 O   5.00351048       0.00000000       0.00000000      -343.057617    
 C   0.00000000       0.00000000      -343.057617       0.00000000    
           2

 O   5.10749149       0.00000000       0.00000000      -343.196106    
 C   0.00000000       0.00000000      -343.196106       0.00000000    
           2

 O   5.21147251       0.00000000       0.00000000      -343.334595    
 C   0.00000000       0.00000000      -343.334595       0.00000000    
           2

 O   5.31545353       0.00000000       0.00000000      -343.473083    
 C   0.00000000       0.00000000      -343.473083       0.00000000    
           2

 O   5.41943455       0.00000000       0.00000000      -343.611572    
 C   0.00000000       0.00000000      -343.611572       0.00000000    
           2

 O   5.52341557       0.00000000       0.00000000      -343.750061    
 C   0.00000000       0.00000000      -343.750061       0.00000000    
           2

 O   5.62739658       0.00000000       0.00000000      -343.888550    
 C   0.00000000       0.00000000      -343.888550       0.00000000    
           2

 O   5.73137760       0.00000000       0.00000000      -344.027039    
 C   0.00000000       0.00000000      -344.027039       0.00000000    
           2

 O   5.83535862       0.00000000       0.00000000      -344.165527    
 C   0.00000000       0.00000000      -344.165527       0.00000000    
           2

 O   5.93933964       0.00000000       0.00000000      -344.304016    
 C   0.00000000       0.00000000      -344.304016       0.00000000    
           2

 O   6.04332066       0.00000000       0.00000000      -344.442505    
 C   0.00000000       0.00000000      -344.442505       0.00000000    
           2

 O   6.14730167       0.00000000       0.00000000      -344.580994    
 C   0.00000000       0.00000000      -344.580994       0.00000000    
           2

 O   6.25128269       0.00000000       0.00000000      -344.719482    
 C   0.00000000       0.00000000      -344.719482       0.00000000    
           2

 O   6.35526371       0.00000000       0.00000000      -344.857971    
 C   0.00000000       0.00000000      -344.857971       0.00000000    
           2

 O   6.45924473       0.00000000       0.00000000      -344.996460    
 C   0.00000000       0.00000000      -344.996460       0.00000000    
           2

 O   6.56322575       0.00000000       0.00000000      -345.134949    
 C   0.00000000       0.00000000      -345.134949       0.00000000    
           2

 O   6.66720676       0.00000000       0.00000000      -345.273438    
 C   0.00000000       0.00000000      -345.273438       0.00000000    
           2

 O   6.77118778       0.00000000       0.00000000      -345.411926    
 C   0.00000000       0.00000000      -345.411926       0.00000000    
           2

 O   6.87516880       0.00000000       0.00000000      -345.550415    
 C   0.00000000       0.00000000      -345.550415       0.00000000    
           2

 O   6.97914982       0.00000000       0.00000000      -345.688904    
 C   0.00000000       0.00000000      -345.688904       0.00000000    
           2

 O   7.08313084       0.00000000       0.00000000      -345.827393    
 C   0.00000000       0.00000000      -345.827393       0.00000000    
           2

 O   7.18711185       0.00000000       0.00000000      -345.965881    
 C   0.00000000       0.00000000      -345.965881       0.00000000    
           2

 O   7.29109287       0.00000000       0.00000000      -346.104370    
 C   0.00000000       0.00000000      -346.104370       0.00000000    
           2

 O   7.39507389       0.00000000       0.00000000      -346.242859    
 C   0.00000000       0.00000000      -346.242859       0.00000000    
           2

 O   7.49905491       0.00000000       0.00000000      -346.381348    
 C   0.00000000       0.00000000      -346.381348       0.00000000    
           2

 O   7.60303593       0.00000000       0.00000000      -346.519836    
 C   0.00000000       0.00000000      -346.519836       0.00000000    
           2

 O   7.70701694       0.00000000       0.00000000      -346.658325    
 C   0.00000000       0.00000000      -346.658325       0.00000000    
           2

 O   7.81099796       0.00000000       0.00000000      -346.796814    
 C   0.00000000       0.00000000      -346.796814       0.00000000    
           2

 O   7.91497898       0.00000000       0.00000000      -346.935303    
 C   0.00000000       0.00000000      -346.935303       0.00000000    
           2

 O   8.01896000       0.00000000       0.00000000      -347.073792    
 C   0.00000000       0.00000000      -347.073792       0.00000000    
           2

 O   8.12294102       0.00000000       0.00000000      -347.212280    
 C   0.00000000       0.00000000      -347.212280       0.00000000    
           2

 O   8.22692204       0.00000000       0.00000000      -347.350769    
 C   0.00000000       0.00000000      -347.350769       0.00000000    
           2

 O   8.33090305       0.00000000       0.00000000      -347.489258    
 C   0.00000000       0.00000000      -347.489258       0.00000000    
           2

 O   8.43488407       0.00000000       0.00000000      -347.627747    
 C   0.00000000       0.00000000      -347.627747       0.00000000    
           2

 O   8.53886509       0.00000000       0.00000000      -347.766235    
 C   0.00000000       0.00000000      -347.766235       0.00000000    
           2

 O   8.64284611       0.00000000       0.00000000      -347.904724    
 C   0.00000000       0.00000000      -347.904724       0.00000000    
           2

 O   8.74682713       0.00000000       0.00000000      -348.043213    
 C   0.00000000       0.00000000      -348.043213       0.00000000    
           2

 O   8.85080814       0.00000000       0.00000000      -348.181702    
 C   0.00000000       0.00000000      -348.181702       0.00000000    
           2

 O   8.95478916       0.00000000       0.00000000      -348.320190    
 C   0.00000000       0.00000000      -348.320190       0.00000000    
           2

 O   9.05877018       0.00000000       0.00000000      -348.458679    
 C   0.00000000       0.00000000      -348.458679       0.00000000    
           2

 O   9.16275120       0.00000000       0.00000000      -348.597168    
 C   0.00000000       0.00000000      -348.597168       0.00000000    
           2

 O   9.26673222       0.00000000       0.00000000      -348.735657    
 C   0.00000000       0.00000000      -348.735657       0.00000000    
           2

 O   9.37071323       0.00000000       0.00000000      -348.874146    
 C   0.00000000       0.00000000      -348.874146       0.00000000    
           2

 O   9.47469425       0.00000000       0.00000000      -349.012634    
 C   0.00000000       0.00000000      -349.012634       0.00000000    
           2

 O   9.57867527       0.00000000       0.00000000      -349.151123    
 C   0.00000000       0.00000000      -349.151123       0.00000000    
           2

 O   9.68265629       0.00000000       0.00000000      -349.289612    
 C   0.00000000       0.00000000      -349.289612       0.00000000    
           2

 O   9.78663731       0.00000000       0.00000000      -349.428101    
 C   0.00000000       0.00000000      -349.428101       0.00000000    
           2

 O   9.89061832       0.00000000       0.00000000      -349.566589    
 C   0.00000000       0.00000000      -349.566589       0.00000000    
           2

 O   9.99459934       0.00000000       0.00000000      -349.705078    
 C   0.00000000       0.00000000      -349.705078       0.00000000    
           2

 O   10.0985804       0.00000000       0.00000000      -349.843567    
 C   0.00000000       0.00000000      -349.843567       0.00000000    
           2

 O   10.2025614       0.00000000       0.00000000      -349.982056    
 C   0.00000000       0.00000000      -349.982056       0.00000000    
           2

 O   10.3065424       0.00000000       0.00000000      -350.120544    
 C   0.00000000       0.00000000      -350.120544       0.00000000    
           2

 O   10.4105234       0.00000000       0.00000000      -350.259033    
 C   0.00000000       0.00000000      -350.259033       0.00000000    
           2

 O   10.5145044       0.00000000       0.00000000      -350.397522    
 C   0.00000000       0.00000000      -350.397522       0.00000000    
           2

 O   10.6184855       0.00000000       0.00000000      -350.536011    
 C   0.00000000       0.00000000      -350.536011       0.00000000    
           2

 O   10.7224665       0.00000000       0.00000000      -350.674500    
 C   0.00000000       0.00000000      -350.674500       0.00000000    
           2

 O   10.8264475       0.00000000       0.00000000      -350.812988    
 C   0.00000000       0.00000000      -350.812988       0.00000000    
           2

 O   10.9304285       0.00000000       0.00000000      -350.951477    
 C   0.00000000       0.00000000      -350.951477       0.00000000    
           2

 O   11.0344095       0.00000000       0.00000000      -351.089966    
 C   0.00000000       0.00000000      -351.089966       0.00000000    
           2

 O   11.1383905       0.00000000       0.00000000      -351.228455    
 C   0.00000000       0.00000000      -351.228455       0.00000000    
           2

 O   11.2423716       0.00000000       0.00000000      -351.366943    
 C   0.00000000       0.00000000      -351.366943       0.00000000    
           2

 O   11.3463526       0.00000000       0.00000000      -351.505432    
 C   0.00000000       0.00000000      -351.505432       0.00000000    
           2

 O   11.4503336       0.00000000       0.00000000      -351.643921    
 C   0.00000000       0.00000000      -351.643921       0.00000000    
           2

 O   11.5543146       0.00000000       0.00000000      -351.782410    
 C   0.00000000       0.00000000      -351.782410       0.00000000    
           2

 O   11.6582956       0.00000000       0.00000000      -351.920898    
 C   0.00000000       0.00000000      -351.920898       0.00000000    
           2

 O   11.7622766       0.00000000       0.00000000      -352.059387    
 C   0.00000000       0.00000000      -352.059387       0.00000000    
           2

 O   11.8662577       0.00000000       0.00000000      -352.197876    
 C   0.00000000       0.00000000      -352.197876       0.00000000    
           2

 O   11.9702387       0.00000000       0.00000000      -352.336365    
 C   0.00000000       0.00000000      -352.336365       0.00000000    
           2

 O   12.0742197       0.00000000       0.00000000      -352.474854    
 C   0.00000000       0.00000000      -352.474854       0.00000000    
           2

 O   12.1782007       0.00000000       0.00000000      -352.613342    
 C   0.00000000       0.00000000      -352.613342       0.00000000    
           2

 O   12.2821817       0.00000000       0.00000000      -352.751831    
 C   0.00000000       0.00000000      -352.751831       0.00000000    
           2

 O   12.3861628       0.00000000       0.00000000      -352.890320    
 C   0.00000000       0.00000000      -352.890320       0.00000000    
           2

 O   12.4901438       0.00000000       0.00000000      -353.028809    
 C   0.00000000       0.00000000      -353.028809       0.00000000    
           2

 O   12.5941248       0.00000000       0.00000000      -353.167297    
 C   0.00000000       0.00000000      -353.167297       0.00000000    
           2

 O   12.6981058       0.00000000       0.00000000      -353.305786    
 C   0.00000000       0.00000000      -353.305786       0.00000000    
           2

 O   12.8020868       0.00000000       0.00000000      -353.444275    
 C   0.00000000       0.00000000      -353.444275       0.00000000    
           2

 O   12.9060678       0.00000000       0.00000000      -353.582764    
 C   0.00000000       0.00000000      -353.582764       0.00000000    
           2

 O   13.0100489       0.00000000       0.00000000      -353.721252    
 C   0.00000000       0.00000000      -353.721252       0.00000000    
           2

 O   13.1140299       0.00000000       0.00000000      -353.859741    
 C   0.00000000       0.00000000      -353.859741       0.00000000    
           2

 O   13.2180109       0.00000000       0.00000000      -353.998230    
 C   0.00000000       0.00000000      -353.998230       0.00000000    
           2

 O   13.3219919       0.00000000       0.00000000      -354.136719    
 C   0.00000000       0.00000000      -354.136719       0.00000000    
           2

 O   13.4259729       0.00000000       0.00000000      -354.275208    
 C   0.00000000       0.00000000      -354.275208       0.00000000    
           2

 O   13.5299540       0.00000000       0.00000000      -354.413696    
 C   0.00000000       0.00000000      -354.413696       0.00000000    
           2

 O   13.6339350       0.00000000       0.00000000      -354.552185    
 C   0.00000000       0.00000000      -354.552185       0.00000000    
           2

 O   13.7379160       0.00000000       0.00000000      -354.690674    
 C   0.00000000       0.00000000      -354.690674       0.00000000    
           2

 O   13.8418970       0.00000000       0.00000000      -354.829163    
 C   0.00000000       0.00000000      -354.829163       0.00000000    
           2

 O   13.9458780       0.00000000       0.00000000      -354.967651    
 C   0.00000000       0.00000000      -354.967651       0.00000000    
           2

 O   14.0498590       0.00000000       0.00000000      -355.106140    
 C   0.00000000       0.00000000      -355.106140       0.00000000    
           2

 O   14.1538401       0.00000000       0.00000000      -355.244629    
 C   0.00000000       0.00000000      -355.244629       0.00000000    
           2

 O   14.2578211       0.00000000       0.00000000      -355.383118    
 C   0.00000000       0.00000000      -355.383118       0.00000000    
           2

 O   14.3618021       0.00000000       0.00000000      -355.521606    
 C   0.00000000       0.00000000      -355.521606       0.00000000    
           2

 O   14.4657831       0.00000000       0.00000000      -355.660095    
 C   0.00000000       0.00000000      -355.660095       0.00000000    
           2

 O   14.5697641       0.00000000       0.00000000      -355.798584    
 C   0.00000000       0.00000000      -355.798584       0.00000000    
           2

 O   14.6737452       0.00000000       0.00000000      -355.937073    
 C   0.00000000       0.00000000      -355.937073       0.00000000    
           2

 O   14.7777262       0.00000000       0.00000000      -356.075562    
 C   0.00000000       0.00000000      -356.075562       0.00000000    
           2

 O   14.8817072       0.00000000       0.00000000      -356.214050    
 C   0.00000000       0.00000000      -356.214050       0.00000000    
           2

 O   14.9856882       0.00000000       0.00000000      -356.352539    
 C   0.00000000       0.00000000      -356.352539       0.00000000    
           2

 O   15.0896692       0.00000000       0.00000000      -356.491028    
 C   0.00000000       0.00000000      -356.491028       0.00000000    
           2

 O   15.1936502       0.00000000       0.00000000      -356.629517    
 C   0.00000000       0.00000000      -356.629517       0.00000000    
           2

 O   15.2976313       0.00000000       0.00000000      -356.768005    
 C   0.00000000       0.00000000      -356.768005       0.00000000    
           2

 O   15.4016123       0.00000000       0.00000000      -356.906494    
 C   0.00000000       0.00000000      -356.906494       0.00000000    
           2

 O   15.5055933       0.00000000       0.00000000      -357.044983    
 C   0.00000000       0.00000000      -357.044983       0.00000000    
           2

 O   15.6095743       0.00000000       0.00000000      -357.183472    
 C   0.00000000       0.00000000      -357.183472       0.00000000    
           2

 O   15.7135553       0.00000000       0.00000000      -357.321960    
 C   0.00000000       0.00000000      -357.321960       0.00000000    
           2

 O   15.8175364       0.00000000       0.00000000      -357.460449    
 C   0.00000000       0.00000000      -357.460449       0.00000000    
           2

 O   15.9215174       0.00000000       0.00000000      -357.598938    
 C   0.00000000       0.00000000      -357.598938       0.00000000    
           2

 O   16.0254993       0.00000000       0.00000000      -357.737427    
 C   0.00000000       0.00000000      -357.737427       0.00000000    
           2

 O   16.1294804       0.00000000       0.00000000      -357.875916    
 C   0.00000000       0.00000000      -357.875916       0.00000000    
           2

 O   16.2334614       0.00000000       0.00000000      -358.014404    
 C   0.00000000       0.00000000      -358.014404       0.00000000    
           2

 O   16.3374424       0.00000000       0.00000000      -358.152893    
 C   0.00000000       0.00000000      -358.152893       0.00000000    
           2

 O   16.4414234       0.00000000       0.00000000      -358.291382    
 C   0.00000000       0.00000000      -358.291382       0.00000000    
           2

 O   16.5454044       0.00000000       0.00000000      -358.429871    
 C   0.00000000       0.00000000      -358.429871       0.00000000    
           2

 O   16.6493855       0.00000000       0.00000000      -358.568359    
 C   0.00000000       0.00000000      -358.568359       0.00000000    
           2

 O   16.7533665       0.00000000       0.00000000      -358.706848    
 C   0.00000000       0.00000000      -358.706848       0.00000000    
           2

 O   16.8573475       0.00000000       0.00000000      -358.845337    
 C   0.00000000       0.00000000      -358.845337       0.00000000    
           2

 O   16.9613285       0.00000000       0.00000000      -358.983826    
 C   0.00000000       0.00000000      -358.983826       0.00000000    
           2

 O   17.0653095       0.00000000       0.00000000      -359.122314    
 C   0.00000000       0.00000000      -359.122314       0.00000000    
           2

 O   17.1692905       0.00000000       0.00000000      -359.260803    
 C   0.00000000       0.00000000      -359.260803       0.00000000    
           2

 O   17.2732716       0.00000000       0.00000000      -359.399292    
 C   0.00000000       0.00000000      -359.399292       0.00000000    
           2

 O   17.3772526       0.00000000       0.00000000      -359.537781    
 C   0.00000000       0.00000000      -359.537781       0.00000000    
           2

 O   17.4812336       0.00000000       0.00000000      -359.676270    
 C   0.00000000       0.00000000      -359.676270       0.00000000    
           2

 O   17.5852146       0.00000000       0.00000000      -359.814758    
 C   0.00000000       0.00000000      -359.814758       0.00000000    
           2

 O   17.6891956       0.00000000       0.00000000      -359.953247    
 C   0.00000000       0.00000000      -359.953247       0.00000000    
           2

 O   17.7931767       0.00000000       0.00000000      -360.091736    
 C   0.00000000       0.00000000      -360.091736       0.00000000    
           2

 O   17.8971577       0.00000000       0.00000000      -360.230225    
 C   0.00000000       0.00000000      -360.230225       0.00000000    
           2

 O   18.0011387       0.00000000       0.00000000      -360.368713    
 C   0.00000000       0.00000000      -360.368713       0.00000000    
           2

 O   18.1051197       0.00000000       0.00000000      -360.507202    
 C   0.00000000       0.00000000      -360.507202       0.00000000    
           2

 O   18.2091007       0.00000000       0.00000000      -360.645691    
 C   0.00000000       0.00000000      -360.645691       0.00000000    
           2

 O   18.3130817       0.00000000       0.00000000      -360.784180    
 C   0.00000000       0.00000000      -360.784180       0.00000000    
           2

 O   18.4170628       0.00000000       0.00000000      -360.922668    
 C   0.00000000       0.00000000      -360.922668       0.00000000    
           2

 O   18.5210438       0.00000000       0.00000000      -361.061157    
 C   0.00000000       0.00000000      -361.061157       0.00000000    
           2

 O   18.6250248       0.00000000       0.00000000      -361.199646    
 C   0.00000000       0.00000000      -361.199646       0.00000000    
           2

 O   18.7290058       0.00000000       0.00000000      -361.338135    
 C   0.00000000       0.00000000      -361.338135       0.00000000    
           2

 O   18.8329868       0.00000000       0.00000000      -361.476624    
 C   0.00000000       0.00000000      -361.476624       0.00000000    
           2

 O   18.9369678       0.00000000       0.00000000      -361.615112    
 C   0.00000000       0.00000000      -361.615112       0.00000000    
           2

 O   19.0409489       0.00000000       0.00000000      -361.753601    
 C   0.00000000       0.00000000      -361.753601       0.00000000    
           2

 O   19.1449299       0.00000000       0.00000000      -361.892090    
 C   0.00000000       0.00000000      -361.892090       0.00000000    
           2

 O   19.2489109       0.00000000       0.00000000      -362.030579    
 C   0.00000000       0.00000000      -362.030579       0.00000000    
           2

 O   19.3528919       0.00000000       0.00000000      -362.169067    
 C   0.00000000       0.00000000      -362.169067       0.00000000    
           2

 O   19.4568729       0.00000000       0.00000000      -362.307556    
 C   0.00000000       0.00000000      -362.307556       0.00000000    
           2

 O   19.5608540       0.00000000       0.00000000      -362.446045    
 C   0.00000000       0.00000000      -362.446045       0.00000000    
           2

 O   19.6648350       0.00000000       0.00000000      -362.584534    
 C   0.00000000       0.00000000      -362.584534       0.00000000    
           2

 O   19.7688160       0.00000000       0.00000000      -362.723022    
 C   0.00000000       0.00000000      -362.723022       0.00000000    
           2

 O   19.8727970       0.00000000       0.00000000      -362.861511    
 C   0.00000000       0.00000000      -362.861511       0.00000000    
           2

 O   19.9767780       0.00000000       0.00000000      -363.000000    
 C   0.00000000       0.00000000      -363.000000       0.00000000    
           2

 O   20.0807590       0.00000000       0.00000000      -363.138489    
 C   0.00000000       0.00000000      -363.138489       0.00000000    
           2

 O   20.1847401       0.00000000       0.00000000      -363.276978    
 C   0.00000000       0.00000000      -363.276978       0.00000000    
           2

 O   20.2887211       0.00000000       0.00000000      -363.415466    
 C   0.00000000       0.00000000      -363.415466       0.00000000    
           2

 O   20.3927021       0.00000000       0.00000000      -363.553955    
 C   0.00000000       0.00000000      -363.553955       0.00000000    
           2

 O   20.4966831       0.00000000       0.00000000      -363.692444    
 C   0.00000000       0.00000000      -363.692444       0.00000000    
           2

 O   20.6006641       0.00000000       0.00000000      -363.830933    
 C   0.00000000       0.00000000      -363.830933       0.00000000    
           2

 O   20.7046452       0.00000000       0.00000000      -363.969421    
 C   0.00000000       0.00000000      -363.969421       0.00000000    
           2

 O   20.8086262       0.00000000       0.00000000      -364.107910    
 C   0.00000000       0.00000000      -364.107910       0.00000000    
           2

 O   20.9126072       0.00000000       0.00000000      -364.246399    
 C   0.00000000       0.00000000      -364.246399       0.00000000    
           2

 O   21.0165882       0.00000000       0.00000000      -364.384888    
 C   0.00000000       0.00000000      -364.384888       0.00000000    
           2

 O   21.1205692       0.00000000       0.00000000      -364.523376    
 C   0.00000000       0.00000000      -364.523376       0.00000000    
           2

 O   21.2245502       0.00000000       0.00000000      -364.661865    
 C   0.00000000       0.00000000      -364.661865       0.00000000    
           2

 O   21.3285313       0.00000000       0.00000000      -364.800354    
 C   0.00000000       0.00000000      -364.800354       0.00000000    
           2

 O   21.4325123       0.00000000       0.00000000      -364.938843    
 C   0.00000000       0.00000000      -364.938843       0.00000000    
           2

 O   21.5364933       0.00000000       0.00000000      -365.077332    
 C   0.00000000       0.00000000      -365.077332       0.00000000    
           2

 O   21.6404743       0.00000000       0.00000000      -365.215820    
 C   0.00000000       0.00000000      -365.215820       0.00000000    
           2

 O   21.7444553       0.00000000       0.00000000      -365.354309    
 C   0.00000000       0.00000000      -365.354309       0.00000000    
           2

 O   21.8484364       0.00000000       0.00000000      -365.492798    
 C   0.00000000       0.00000000      -365.492798       0.00000000    
           2

 O   21.9524174       0.00000000       0.00000000      -365.631287    
 C   0.00000000       0.00000000      -365.631287       0.00000000    
           2

 O   22.0563984       0.00000000       0.00000000      -365.769775    
 C   0.00000000       0.00000000      -365.769775       0.00000000    
           2

 O   22.1603794       0.00000000       0.00000000      -365.908264    
 C   0.00000000       0.00000000      -365.908264       0.00000000    
           2

 O   22.2643604       0.00000000       0.00000000      -366.046753    
 C   0.00000000       0.00000000      -366.046753       0.00000000    
           2

 O   22.3683414       0.00000000       0.00000000      -366.185242    
 C   0.00000000       0.00000000      -366.185242       0.00000000    
           2

 O   22.4723225       0.00000000       0.00000000      -366.323730    
 C   0.00000000       0.00000000      -366.323730       0.00000000    
           2

 O   22.5763035       0.00000000       0.00000000      -366.462219    
 C   0.00000000       0.00000000      -366.462219       0.00000000    
           2

 O   22.6802845       0.00000000       0.00000000      -366.600708    
 C   0.00000000       0.00000000      -366.600708       0.00000000    
           2

 O   22.7842655       0.00000000       0.00000000      -366.739197    
 C   0.00000000       0.00000000      -366.739197       0.00000000    
           2

 O   22.8882465       0.00000000       0.00000000      -366.877686    
 C   0.00000000       0.00000000      -366.877686       0.00000000    
           2

 O   22.9922276       0.00000000       0.00000000      -367.016174    
 C   0.00000000       0.00000000      -367.016174       0.00000000    
           2

 O   23.0962086       0.00000000       0.00000000      -367.154663    
 C   0.00000000       0.00000000      -367.154663       0.00000000    
           2

 O   23.2001896       0.00000000       0.00000000      -367.293152    
 C   0.00000000       0.00000000      -367.293152       0.00000000    
           2

 O   23.3041706       0.00000000       0.00000000      -367.431641    
 C   0.00000000       0.00000000      -367.431641       0.00000000    
           2

 O   23.4081516       0.00000000       0.00000000      -367.570129    
 C   0.00000000       0.00000000      -367.570129       0.00000000    
           2

 O   23.5121326       0.00000000       0.00000000      -367.708618    
 C   0.00000000       0.00000000      -367.708618       0.00000000    
           2

 O   23.6161137       0.00000000       0.00000000      -367.847107    
 C   0.00000000       0.00000000      -367.847107       0.00000000    
           2

 O   23.7200947       0.00000000       0.00000000      -367.985596    
 C   0.00000000       0.00000000      -367.985596       0.00000000    
           2

 O   23.8240757       0.00000000       0.00000000      -368.124084    
 C   0.00000000       0.00000000      -368.124084       0.00000000    
           2

 O   23.9280567       0.00000000       0.00000000      -368.262573    
 C   0.00000000       0.00000000      -368.262573       0.00000000    
           2

 O   24.0320377       0.00000000       0.00000000      -368.401062    
 C   0.00000000       0.00000000      -368.401062       0.00000000    
           2

 O   24.1360188       0.00000000       0.00000000      -368.539551    
 C   0.00000000       0.00000000      -368.539551       0.00000000    
           2

 O   24.2399998       0.00000000       0.00000000      -368.678040    
 C   0.00000000       0.00000000      -368.678040       0.00000000    
           2

 O   24.3439808       0.00000000       0.00000000      -368.816528    
 C   0.00000000       0.00000000      -368.816528       0.00000000    
           2

 O   24.4479618       0.00000000       0.00000000      -368.955017    
 C   0.00000000       0.00000000      -368.955017       0.00000000    
           2

 O   24.5519428       0.00000000       0.00000000      -369.093506    
 C   0.00000000       0.00000000      -369.093506       0.00000000    
           2

 O   24.6559238       0.00000000       0.00000000      -369.231995    
 C   0.00000000       0.00000000      -369.231995       0.00000000    
           2

 O   24.7599049       0.00000000       0.00000000      -369.370483    
 C   0.00000000       0.00000000      -369.370483       0.00000000    
           2

 O   24.8638859       0.00000000       0.00000000      -369.508972    
 C   0.00000000       0.00000000      -369.508972       0.00000000    
           2

 O   24.9678669       0.00000000       0.00000000      -369.647461    
 C   0.00000000       0.00000000      -369.647461       0.00000000    
           2

 O   25.0718479       0.00000000       0.00000000      -369.785950    
 C   0.00000000       0.00000000      -369.785950       0.00000000    
           2

 O   25.1758289       0.00000000       0.00000000      -369.924438    
 C   0.00000000       0.00000000      -369.924438       0.00000000    
           2

 O   25.2798100       0.00000000       0.00000000      -370.062927    
 C   0.00000000       0.00000000      -370.062927       0.00000000    
           2

 O   25.3837910       0.00000000       0.00000000      -370.201416    
 C   0.00000000       0.00000000      -370.201416       0.00000000    
           2

 O   25.4877720       0.00000000       0.00000000      -370.339905    
 C   0.00000000       0.00000000      -370.339905       0.00000000    
           2

 O   25.5917530       0.00000000       0.00000000      -370.478394    
 C   0.00000000       0.00000000      -370.478394       0.00000000    
           2

 O   25.6957340       0.00000000       0.00000000      -370.616882    
 C   0.00000000       0.00000000      -370.616882       0.00000000    
           2

 O   25.7997150       0.00000000       0.00000000      -370.755371    
 C   0.00000000       0.00000000      -370.755371       0.00000000    
           2

 O   25.9036961       0.00000000       0.00000000      -370.893860    
 C   0.00000000       0.00000000      -370.893860       0.00000000    
           2

 O   26.0076771       0.00000000       0.00000000      -371.032349    
 C   0.00000000       0.00000000      -371.032349       0.00000000    
           2

 O   26.1116581       0.00000000       0.00000000      -371.170837    
 C   0.00000000       0.00000000      -371.170837       0.00000000    
           2

 O   26.2156391       0.00000000       0.00000000      -371.309326    
 C   0.00000000       0.00000000      -371.309326       0.00000000    
           2

 O   26.3196201       0.00000000       0.00000000      -371.447815    
 C   0.00000000       0.00000000      -371.447815       0.00000000    
           2

 O   26.4236012       0.00000000       0.00000000      -371.586304    
 C   0.00000000       0.00000000      -371.586304       0.00000000    
           2

 O   26.5275822       0.00000000       0.00000000      -371.724792    
 C   0.00000000       0.00000000      -371.724792       0.00000000    
           2

 O   26.6315632       0.00000000       0.00000000      -371.863281    
 C   0.00000000       0.00000000      -371.863281       0.00000000    
           2

 O   26.7355442       0.00000000       0.00000000      -372.001770    
 C   0.00000000       0.00000000      -372.001770       0.00000000    
           2

 O   26.8395252       0.00000000       0.00000000      -372.140259    
 C   0.00000000       0.00000000      -372.140259       0.00000000    
           2

 O   26.9435062       0.00000000       0.00000000      -372.278748    
 C   0.00000000       0.00000000      -372.278748       0.00000000    
           2

 O   27.0474873       0.00000000       0.00000000      -372.417236    
 C   0.00000000       0.00000000      -372.417236       0.00000000    
           2

 O   27.1514683       0.00000000       0.00000000      -372.555725    
 C   0.00000000       0.00000000      -372.555725       0.00000000    
           2

 O   27.2554493       0.00000000       0.00000000      -372.694214    
 C   0.00000000       0.00000000      -372.694214       0.00000000    
           2

 O   27.3594303       0.00000000       0.00000000      -372.832703    
 C   0.00000000       0.00000000      -372.832703       0.00000000    
           2

 O   27.4634113       0.00000000       0.00000000      -372.971191    
 C   0.00000000       0.00000000      -372.971191       0.00000000    
           2

 O   27.5673923       0.00000000       0.00000000      -373.109680    
 C   0.00000000       0.00000000      -373.109680       0.00000000    
           2

 O   27.6713734       0.00000000       0.00000000      -373.248169    
 C   0.00000000       0.00000000      -373.248169       0.00000000    
           2

 O   27.7753544       0.00000000       0.00000000      -373.386658    
 C   0.00000000       0.00000000      -373.386658       0.00000000    
           2

 O   27.8793354       0.00000000       0.00000000      -373.525146    
 C   0.00000000       0.00000000      -373.525146       0.00000000    
           2

 O   27.9833164       0.00000000       0.00000000      -373.663635    
 C   0.00000000       0.00000000      -373.663635       0.00000000    
           2

 O   28.0872974       0.00000000       0.00000000      -373.802124    
 C   0.00000000       0.00000000      -373.802124       0.00000000    
           2

 O   28.1912785       0.00000000       0.00000000      -373.940613    
 C   0.00000000       0.00000000      -373.940613       0.00000000    
           2

 O   28.2952595       0.00000000       0.00000000      -374.079102    
 C   0.00000000       0.00000000      -374.079102       0.00000000    
