           2

 O   2.49491858       0.00000000       0.00000000       6.76832255E-03
 C   0.00000000       0.00000000       6.76832255E-03   0.00000000    
           2

 O   2.48053789       0.00000000       0.00000000       2.59231664E-02
 C   0.00000000       0.00000000       2.59231664E-02   0.00000000    
           2

 O   2.45803738       0.00000000       0.00000000       5.58938086E-02
 C   0.00000000       0.00000000       5.58938086E-02   0.00000000    
           2

 O   2.42954516       0.00000000       0.00000000       9.38451737E-02
 C   0.00000000       0.00000000       9.38451737E-02   0.00000000    
           2

 O   2.39828610       0.00000000       0.00000000      0.135481939    
 C   0.00000000       0.00000000      0.135481939       0.00000000    
           2

 O   2.36849046       0.00000000       0.00000000      0.175169662    
 C   0.00000000       0.00000000      0.175169662       0.00000000    
           2

 O   2.34478927       0.00000000       0.00000000      0.206739426    
 C   0.00000000       0.00000000      0.206739426       0.00000000    
           2

 O   2.33108020       0.00000000       0.00000000      0.224999696    
 C   0.00000000       0.00000000      0.224999696       0.00000000    
           2

 O   2.32939672       0.00000000       0.00000000      0.227241933    
 C   0.00000000       0.00000000      0.227241933       0.00000000    
           2

 O   2.33947349       0.00000000       0.00000000      0.213819638    
 C   0.00000000       0.00000000      0.213819638       0.00000000    
           2

 O   2.35909271       0.00000000       0.00000000      0.187686920    
 C   0.00000000       0.00000000      0.187686920       0.00000000    
           2

 O   2.38480759       0.00000000       0.00000000      0.153434888    
 C   0.00000000       0.00000000      0.153434888       0.00000000    
           2

 O   2.41272426       0.00000000       0.00000000      0.116250217    
 C   0.00000000       0.00000000      0.116250217       0.00000000    
           2

 O   2.43917418       0.00000000       0.00000000       8.10190290E-02
 C   0.00000000       0.00000000       8.10190290E-02   0.00000000    
           2

 O   2.46115398       0.00000000       0.00000000       5.17419726E-02
 C   0.00000000       0.00000000       5.17419726E-02   0.00000000    
           2

 O   2.47649860       0.00000000       0.00000000       3.13030966E-02
 C   0.00000000       0.00000000       3.13030966E-02   0.00000000    
           2

 O   2.48387003       0.00000000       0.00000000       2.14843769E-02
 C   0.00000000       0.00000000       2.14843769E-02   0.00000000    
           2

 O   2.48268342       0.00000000       0.00000000       2.30650231E-02
 C   0.00000000       0.00000000       2.30650231E-02   0.00000000    
           2

 O   2.47306013       0.00000000       0.00000000       3.58832814E-02
 C   0.00000000       0.00000000       3.58832814E-02   0.00000000    
           2

 O   2.45585275       0.00000000       0.00000000       5.88033497E-02
 C   0.00000000       0.00000000       5.88033497E-02   0.00000000    
           2

 O   2.43273520       0.00000000       0.00000000       8.95957053E-02
 C   0.00000000       0.00000000       8.95957053E-02   0.00000000    
           2

 O   2.40629077       0.00000000       0.00000000      0.124819443    
 C   0.00000000       0.00000000      0.124819443       0.00000000    
           2

 O   2.37995338       0.00000000       0.00000000      0.159900591    
 C   0.00000000       0.00000000      0.159900591       0.00000000    
           2

 O   2.35761213       0.00000000       0.00000000      0.189659089    
 C   0.00000000       0.00000000      0.189659089       0.00000000    
           2

 O   2.34281421       0.00000000       0.00000000      0.209369764    
 C   0.00000000       0.00000000      0.209369764       0.00000000    
           2

 O   2.33784199       0.00000000       0.00000000      0.215992764    
 C   0.00000000       0.00000000      0.215992764       0.00000000    
           2

 O   2.34315658       0.00000000       0.00000000      0.208913758    
 C   0.00000000       0.00000000      0.208913758       0.00000000    
           2

 O   2.35744929       0.00000000       0.00000000      0.189875990    
 C   0.00000000       0.00000000      0.189875990       0.00000000    
           2

 O   2.37812328       0.00000000       0.00000000      0.162338451    
 C   0.00000000       0.00000000      0.162338451       0.00000000    
           2

 O   2.40193057       0.00000000       0.00000000      0.130627453    
 C   0.00000000       0.00000000      0.130627453       0.00000000    
           2

 O   2.42558026       0.00000000       0.00000000       9.91262645E-02
 C   0.00000000       0.00000000       9.91262645E-02   0.00000000    
           2

 O   2.44619656       0.00000000       0.00000000       7.16653913E-02
 C   0.00000000       0.00000000       7.16653913E-02   0.00000000    
           2

 O   2.46156859       0.00000000       0.00000000       5.11899032E-02
 C   0.00000000       0.00000000       5.11899032E-02   0.00000000    
           2

 O   2.47022223       0.00000000       0.00000000       3.96633744E-02
 C   0.00000000       0.00000000       3.96633744E-02   0.00000000    
           2

 O   2.47139907       0.00000000       0.00000000       3.80957797E-02
 C   0.00000000       0.00000000       3.80957797E-02   0.00000000    
           2

 O   2.46502471       0.00000000       0.00000000       4.65864912E-02
 C   0.00000000       0.00000000       4.65864912E-02   0.00000000    
           2

 O   2.45171237       0.00000000       0.00000000       6.43183887E-02
 C   0.00000000       0.00000000       6.43183887E-02   0.00000000    
           2

 O   2.43281007       0.00000000       0.00000000       8.94961059E-02
 C   0.00000000       0.00000000       8.94961059E-02   0.00000000    
           2

 O   2.41044450       0.00000000       0.00000000      0.119286947    
 C   0.00000000       0.00000000      0.119286947       0.00000000    
           2

 O   2.38746333       0.00000000       0.00000000      0.149897784    
 C   0.00000000       0.00000000      0.149897784       0.00000000    
           2

 O   2.36714363       0.00000000       0.00000000      0.176963598    
 C   0.00000000       0.00000000      0.176963598       0.00000000    
           2

 O   2.35260558       0.00000000       0.00000000      0.196328059    
 C   0.00000000       0.00000000      0.196328059       0.00000000    
           2

 O   2.34608436       0.00000000       0.00000000      0.205014214    
 C   0.00000000       0.00000000      0.205014214       0.00000000    
           2

 O   2.34839392       0.00000000       0.00000000      0.201938048    
 C   0.00000000       0.00000000      0.201938048       0.00000000    
           2

 O   2.35882664       0.00000000       0.00000000      0.188041657    
 C   0.00000000       0.00000000      0.188041657       0.00000000    
           2

 O   2.37544894       0.00000000       0.00000000      0.165900767    
 C   0.00000000       0.00000000      0.165900767       0.00000000    
           2

 O   2.39559603       0.00000000       0.00000000      0.139064908    
 C   0.00000000       0.00000000      0.139064908       0.00000000    
           2

 O   2.41639614       0.00000000       0.00000000      0.111359403    
 C   0.00000000       0.00000000      0.111359403       0.00000000    
           2

 O   2.43520427       0.00000000       0.00000000       8.63070562E-02
 C   0.00000000       0.00000000       8.63070562E-02   0.00000000    
           2

 O   2.44988155       0.00000000       0.00000000       6.67570010E-02
 C   0.00000000       0.00000000       6.67570010E-02   0.00000000    
           2

 O   2.45891953       0.00000000       0.00000000       5.47185242E-02
 C   0.00000000       0.00000000       5.47185242E-02   0.00000000    
           2

 O   2.46146464       0.00000000       0.00000000       5.13283238E-02
 C   0.00000000       0.00000000       5.13283238E-02   0.00000000    
           2

 O   2.45730829       0.00000000       0.00000000       5.68644926E-02
 C   0.00000000       0.00000000       5.68644926E-02   0.00000000    
           2

 O   2.44688630       0.00000000       0.00000000       7.07466006E-02
 C   0.00000000       0.00000000       7.07466006E-02   0.00000000    
           2

 O   2.43130040       0.00000000       0.00000000       9.15070549E-02
 C   0.00000000       0.00000000       9.15070549E-02   0.00000000    
           2

 O   2.41233253       0.00000000       0.00000000      0.116772182    
 C   0.00000000       0.00000000      0.116772182       0.00000000    
           2

 O   2.39238143       0.00000000       0.00000000      0.143346995    
 C   0.00000000       0.00000000      0.143346995       0.00000000    
           2

 O   2.37422800       0.00000000       0.00000000      0.167527288    
 C   0.00000000       0.00000000      0.167527288       0.00000000    
           2

 O   2.36058426       0.00000000       0.00000000      0.185700789    
 C   0.00000000       0.00000000      0.185700789       0.00000000    
           2

 O   2.35351706       0.00000000       0.00000000      0.195114121    
 C   0.00000000       0.00000000      0.195114121       0.00000000    
           2

 O   2.35397816       0.00000000       0.00000000      0.194499955    
 C   0.00000000       0.00000000      0.194499955       0.00000000    
           2

 O   2.36164069       0.00000000       0.00000000      0.184293434    
 C   0.00000000       0.00000000      0.184293434       0.00000000    
           2

 O   2.37506747       0.00000000       0.00000000      0.166409135    
 C   0.00000000       0.00000000      0.166409135       0.00000000    
           2

 O   2.39208508       0.00000000       0.00000000      0.143741772    
 C   0.00000000       0.00000000      0.143741772       0.00000000    
           2

 O   2.41022301       0.00000000       0.00000000      0.119582191    
 C   0.00000000       0.00000000      0.119582191       0.00000000    
           2

 O   2.42710543       0.00000000       0.00000000       9.70949531E-02
 C   0.00000000       0.00000000       9.70949531E-02   0.00000000    
           2

 O   2.44073081       0.00000000       0.00000000       7.89460018E-02
 C   0.00000000       0.00000000       7.89460018E-02   0.00000000    
           2

 O   2.44962502       0.00000000       0.00000000       6.70989752E-02
 C   0.00000000       0.00000000       6.70989752E-02   0.00000000    
           2

 O   2.45289850       0.00000000       0.00000000       6.27387166E-02
 C   0.00000000       0.00000000       6.27387166E-02   0.00000000    
           2

 O   2.45025706       0.00000000       0.00000000       6.62570968E-02
 C   0.00000000       0.00000000       6.62570968E-02   0.00000000    
           2

 O   2.44200468       0.00000000       0.00000000       7.72493854E-02
 C   0.00000000       0.00000000       7.72493854E-02   0.00000000    
           2

 O   2.42905116       0.00000000       0.00000000       9.45034549E-02
 C   0.00000000       0.00000000       9.45034549E-02   0.00000000    
           2

 O   2.41290736       0.00000000       0.00000000      0.116006896    
 C   0.00000000       0.00000000      0.116006896       0.00000000    
           2

 O   2.39561582       0.00000000       0.00000000      0.139039204    
 C   0.00000000       0.00000000      0.139039204       0.00000000    
           2

 O   2.37955189       0.00000000       0.00000000      0.160436243    
 C   0.00000000       0.00000000      0.160436243       0.00000000    
           2

 O   2.36706376       0.00000000       0.00000000      0.177070320    
 C   0.00000000       0.00000000      0.177070320       0.00000000    
           2

 O   2.36001182       0.00000000       0.00000000      0.186463580    
 C   0.00000000       0.00000000      0.186463580       0.00000000    
           2

 O   2.35936880       0.00000000       0.00000000      0.187320217    
 C   0.00000000       0.00000000      0.187320217       0.00000000    
           2

 O   2.36504126       0.00000000       0.00000000      0.179764479    
 C   0.00000000       0.00000000      0.179764479       0.00000000    
           2

 O   2.37595701       0.00000000       0.00000000      0.165224791    
 C   0.00000000       0.00000000      0.165224791       0.00000000    
           2

 O   2.39034438       0.00000000       0.00000000      0.146060959    
 C   0.00000000       0.00000000      0.146060959       0.00000000    
           2

 O   2.40609288       0.00000000       0.00000000      0.125083938    
 C   0.00000000       0.00000000      0.125083938       0.00000000    
           2

 O   2.42109823       0.00000000       0.00000000      0.105096787    
 C   0.00000000       0.00000000      0.105096787       0.00000000    
           2

 O   2.43352723       0.00000000       0.00000000       8.85414407E-02
 C   0.00000000       0.00000000       8.85414407E-02   0.00000000    
           2

 O   2.44198155       0.00000000       0.00000000       7.72802457E-02
 C   0.00000000       0.00000000       7.72802457E-02   0.00000000    
           2

 O   2.44557691       0.00000000       0.00000000       7.24912882E-02
 C   0.00000000       0.00000000       7.24912882E-02   0.00000000    
           2

 O   2.44397020       0.00000000       0.00000000       7.46314749E-02
 C   0.00000000       0.00000000       7.46314749E-02   0.00000000    
           2

 O   2.43736792       0.00000000       0.00000000       8.34258199E-02
 C   0.00000000       0.00000000       8.34258199E-02   0.00000000    
           2

 O   2.42652726       0.00000000       0.00000000       9.78655517E-02
 C   0.00000000       0.00000000       9.78655517E-02   0.00000000    
           2

 O   2.41273904       0.00000000       0.00000000      0.116231292    
 C   0.00000000       0.00000000      0.116231292       0.00000000    
           2

 O   2.39775538       0.00000000       0.00000000      0.136189386    
 C   0.00000000       0.00000000      0.136189386       0.00000000    
           2

 O   2.38361621       0.00000000       0.00000000      0.155022755    
 C   0.00000000       0.00000000      0.155022755       0.00000000    
           2

 O   2.37235332       0.00000000       0.00000000      0.170024857    
 C   0.00000000       0.00000000      0.170024857       0.00000000    
           2

 O   2.36561751       0.00000000       0.00000000      0.178996980    
 C   0.00000000       0.00000000      0.178996980       0.00000000    
           2

 O   2.36434340       0.00000000       0.00000000      0.180694163    
 C   0.00000000       0.00000000      0.180694163       0.00000000    
           2

 O   2.36857653       0.00000000       0.00000000      0.175055578    
 C   0.00000000       0.00000000      0.175055578       0.00000000    
           2

 O   2.37751174       0.00000000       0.00000000      0.163153797    
 C   0.00000000       0.00000000      0.163153797       0.00000000    
           2

 O   2.38970113       0.00000000       0.00000000      0.146917537    
 C   0.00000000       0.00000000      0.146917537       0.00000000    
           2

 O   2.40334773       0.00000000       0.00000000      0.128740311    
 C   0.00000000       0.00000000      0.128740311       0.00000000    
           2

 O   2.41660333       0.00000000       0.00000000      0.111083955    
 C   0.00000000       0.00000000      0.111083955       0.00000000    
           2

 O   2.42781186       0.00000000       0.00000000       9.61541384E-02
 C   0.00000000       0.00000000       9.61541384E-02   0.00000000    
           2

 O   2.43567419       0.00000000       0.00000000       8.56816173E-02
 C   0.00000000       0.00000000       8.56816173E-02   0.00000000    
           2

 O   2.43933773       0.00000000       0.00000000       8.08018297E-02
 C   0.00000000       0.00000000       8.08018297E-02   0.00000000    
           2

 O   2.43843699       0.00000000       0.00000000       8.20016861E-02
 C   0.00000000       0.00000000       8.20016861E-02   0.00000000    
           2

 O   2.43310690       0.00000000       0.00000000       8.91014561E-02
 C   0.00000000       0.00000000       8.91014561E-02   0.00000000    
           2

 O   2.42398119       0.00000000       0.00000000      0.101256736    
 C   0.00000000       0.00000000      0.101256736       0.00000000    
           2

 O   2.41216874       0.00000000       0.00000000      0.116990909    
 C   0.00000000       0.00000000      0.116990909       0.00000000    
           2

 O   2.39917970       0.00000000       0.00000000      0.134292170    
 C   0.00000000       0.00000000      0.134292170       0.00000000    
           2

 O   2.38677287       0.00000000       0.00000000      0.150818154    
 C   0.00000000       0.00000000      0.150818154       0.00000000    
           2

 O   2.37670732       0.00000000       0.00000000      0.164225325    
 C   0.00000000       0.00000000      0.164225325       0.00000000    
           2

 O   2.37043715       0.00000000       0.00000000      0.172577277    
 C   0.00000000       0.00000000      0.172577277       0.00000000    
           2

 O   2.36883068       0.00000000       0.00000000      0.174717233    
 C   0.00000000       0.00000000      0.174717233       0.00000000    
           2

 O   2.37201285       0.00000000       0.00000000      0.170478672    
 C   0.00000000       0.00000000      0.170478672       0.00000000    
           2

 O   2.37937450       0.00000000       0.00000000      0.160672903    
 C   0.00000000       0.00000000      0.160672903       0.00000000    
           2

 O   2.38972759       0.00000000       0.00000000      0.146882519    
 C   0.00000000       0.00000000      0.146882519       0.00000000    
           2

 O   2.40154362       0.00000000       0.00000000      0.131143779    
 C   0.00000000       0.00000000      0.131143779       0.00000000    
           2

 O   2.41320753       0.00000000       0.00000000      0.115607589    
 C   0.00000000       0.00000000      0.115607589       0.00000000    
           2

 O   2.42323780       0.00000000       0.00000000      0.102247454    
 C   0.00000000       0.00000000      0.102247454       0.00000000    
           2

 O   2.43044376       0.00000000       0.00000000       9.26492065E-02
 C   0.00000000       0.00000000       9.26492065E-02   0.00000000    
           2

 O   2.43402123       0.00000000       0.00000000       8.78839567E-02
 C   0.00000000       0.00000000       8.78839567E-02   0.00000000    
           2

 O   2.43360066       0.00000000       0.00000000       8.84442404E-02
 C   0.00000000       0.00000000       8.84442404E-02   0.00000000    
           2

 O   2.42926455       0.00000000       0.00000000       9.42198634E-02
 C   0.00000000       0.00000000       9.42198634E-02   0.00000000    
           2

 O   2.42154598       0.00000000       0.00000000      0.104501009    
 C   0.00000000       0.00000000      0.104501009       0.00000000    
           2

 O   2.41140008       0.00000000       0.00000000      0.118015207    
 C   0.00000000       0.00000000      0.118015207       0.00000000    
           2

 O   2.40013337       0.00000000       0.00000000      0.133022398    
 C   0.00000000       0.00000000      0.133022398       0.00000000    
           2

 O   2.38926625       0.00000000       0.00000000      0.147497311    
 C   0.00000000       0.00000000      0.147497311       0.00000000    
           2

 O   2.38032365       0.00000000       0.00000000      0.159408793    
 C   0.00000000       0.00000000      0.159408793       0.00000000    
           2

 O   2.37458062       0.00000000       0.00000000      0.167058408    
 C   0.00000000       0.00000000      0.167058408       0.00000000    
           2

 O   2.37282872       0.00000000       0.00000000      0.169392034    
 C   0.00000000       0.00000000      0.169392034       0.00000000    
           2

 O   2.37523484       0.00000000       0.00000000      0.166187003    
 C   0.00000000       0.00000000      0.166187003       0.00000000    
           2

 O   2.38133526       0.00000000       0.00000000      0.158061370    
 C   0.00000000       0.00000000      0.158061370       0.00000000    
           2

 O   2.39015055       0.00000000       0.00000000      0.146319464    
 C   0.00000000       0.00000000      0.146319464       0.00000000    
           2

 O   2.40037990       0.00000000       0.00000000      0.132694170    
 C   0.00000000       0.00000000      0.132694170       0.00000000    
           2

 O   2.41061687       0.00000000       0.00000000      0.119058736    
 C   0.00000000       0.00000000      0.119058736       0.00000000    
           2

 O   2.41954446       0.00000000       0.00000000      0.107167423    
 C   0.00000000       0.00000000      0.107167423       0.00000000    
           2

 O   2.42608261       0.00000000       0.00000000       9.84585956E-02
 C   0.00000000       0.00000000       9.84585956E-02   0.00000000    
           2

 O   2.42948461       0.00000000       0.00000000       9.39272791E-02
 C   0.00000000       0.00000000       9.39272791E-02   0.00000000    
           2

 O   2.42938852       0.00000000       0.00000000       9.40554217E-02
 C   0.00000000       0.00000000       9.40554217E-02   0.00000000    
           2

 O   2.42583895       0.00000000       0.00000000       9.87833068E-02
 C   0.00000000       0.00000000       9.87833068E-02   0.00000000    
           2

 O   2.41928554       0.00000000       0.00000000      0.107512400    
 C   0.00000000       0.00000000      0.107512400       0.00000000    
           2

 O   2.41055322       0.00000000       0.00000000      0.119143799    
 C   0.00000000       0.00000000      0.119143799       0.00000000    
           2

 O   2.40077448       0.00000000       0.00000000      0.132169187    
 C   0.00000000       0.00000000      0.132169187       0.00000000    
           2

 O   2.39126635       0.00000000       0.00000000      0.144833833    
 C   0.00000000       0.00000000      0.144833833       0.00000000    
           2

 O   2.38335228       0.00000000       0.00000000      0.155375436    
 C   0.00000000       0.00000000      0.155375436       0.00000000    
           2

 O   2.37814808       0.00000000       0.00000000      0.162307560    
 C   0.00000000       0.00000000      0.162307560       0.00000000    
           2

 O   2.37636614       0.00000000       0.00000000      0.164680988    
 C   0.00000000       0.00000000      0.164680988       0.00000000    
           2

 O   2.37819314       0.00000000       0.00000000      0.162247539    
 C   0.00000000       0.00000000      0.162247539       0.00000000    
           2

 O   2.38327312       0.00000000       0.00000000      0.155481040    
 C   0.00000000       0.00000000      0.155481040       0.00000000    
           2

 O   2.39079571       0.00000000       0.00000000      0.145461097    
 C   0.00000000       0.00000000      0.145461097       0.00000000    
           2

 O   2.39965272       0.00000000       0.00000000      0.133663729    
 C   0.00000000       0.00000000      0.133663729       0.00000000    
           2

 O   2.40862155       0.00000000       0.00000000      0.121717222    
 C   0.00000000       0.00000000      0.121717222       0.00000000    
           2

 O   2.41653705       0.00000000       0.00000000      0.111173764    
 C   0.00000000       0.00000000      0.111173764       0.00000000    
           2

 O   2.42242718       0.00000000       0.00000000      0.103328273    
 C   0.00000000       0.00000000      0.103328273       0.00000000    
           2

 O   2.42560554       0.00000000       0.00000000       9.90947410E-02
 C   0.00000000       0.00000000       9.90947410E-02   0.00000000    
           2

 O   2.42572594       0.00000000       0.00000000       9.89342406E-02
 C   0.00000000       0.00000000       9.89342406E-02   0.00000000    
           2

 O   2.42280602       0.00000000       0.00000000      0.102823429    
 C   0.00000000       0.00000000      0.102823429       0.00000000    
           2

 O   2.41722560       0.00000000       0.00000000      0.110256545    
 C   0.00000000       0.00000000      0.110256545       0.00000000    
           2

 O   2.40969801       0.00000000       0.00000000      0.120283388    
 C   0.00000000       0.00000000      0.120283388       0.00000000    
           2

 O   2.40120602       0.00000000       0.00000000      0.131594777    
 C   0.00000000       0.00000000      0.131594777       0.00000000    
           2

 O   2.39289260       0.00000000       0.00000000      0.142668158    
 C   0.00000000       0.00000000      0.142668158       0.00000000    
           2

 O   2.38590693       0.00000000       0.00000000      0.151972964    
 C   0.00000000       0.00000000      0.151972964       0.00000000    
           2

 O   2.38122463       0.00000000       0.00000000      0.158209682    
 C   0.00000000       0.00000000      0.158209682       0.00000000    
           2

 O   2.37948275       0.00000000       0.00000000      0.160529941    
 C   0.00000000       0.00000000      0.160529941       0.00000000    
           2

 O   2.38087249       0.00000000       0.00000000      0.158678740    
 C   0.00000000       0.00000000      0.158678740       0.00000000    
           2

 O   2.38511992       0.00000000       0.00000000      0.153021172    
 C   0.00000000       0.00000000      0.153021172       0.00000000    
           2

 O   2.39155149       0.00000000       0.00000000      0.144454345    
 C   0.00000000       0.00000000      0.144454345       0.00000000    
           2

 O   2.39922237       0.00000000       0.00000000      0.134236962    
 C   0.00000000       0.00000000      0.134236962       0.00000000    
           2

 O   2.40707088       0.00000000       0.00000000      0.123782732    
 C   0.00000000       0.00000000      0.123782732       0.00000000    
           2

 O   2.41406965       0.00000000       0.00000000      0.114460438    
 C   0.00000000       0.00000000      0.114460438       0.00000000    
           2

 O   2.41934824       0.00000000       0.00000000      0.107429452    
 C   0.00000000       0.00000000      0.107429452       0.00000000    
           2

 O   2.42228150       0.00000000       0.00000000      0.103522271    
 C   0.00000000       0.00000000      0.103522271       0.00000000    
           2

 O   2.42254376       0.00000000       0.00000000      0.103172921    
 C   0.00000000       0.00000000      0.103172921       0.00000000    
           2

 O   2.42013311       0.00000000       0.00000000      0.106384054    
 C   0.00000000       0.00000000      0.106384054       0.00000000    
           2

 O   2.41537046       0.00000000       0.00000000      0.112727799    
 C   0.00000000       0.00000000      0.112727799       0.00000000    
           2

 O   2.40887332       0.00000000       0.00000000      0.121382035    
 C   0.00000000       0.00000000      0.121382035       0.00000000    
           2

 O   2.40149522       0.00000000       0.00000000      0.131209493    
 C   0.00000000       0.00000000      0.131209493       0.00000000    
           2

 O   2.39422941       0.00000000       0.00000000      0.140887618    
 C   0.00000000       0.00000000      0.140887618       0.00000000    
           2

 O   2.38807440       0.00000000       0.00000000      0.149085954    
 C   0.00000000       0.00000000      0.149085954       0.00000000    
           2

 O   2.38388300       0.00000000       0.00000000      0.154668912    
 C   0.00000000       0.00000000      0.154668912       0.00000000    
           2

 O   2.38222146       0.00000000       0.00000000      0.156881928    
 C   0.00000000       0.00000000      0.156881928       0.00000000    
           2

 O   2.38327813       0.00000000       0.00000000      0.155474380    
 C   0.00000000       0.00000000      0.155474380       0.00000000    
           2

 O   2.38684106       0.00000000       0.00000000      0.150728494    
 C   0.00000000       0.00000000      0.150728494       0.00000000    
           2

 O   2.39234877       0.00000000       0.00000000      0.143392414    
 C   0.00000000       0.00000000      0.143392414       0.00000000    
           2

 O   2.39899421       0.00000000       0.00000000      0.134540826    
 C   0.00000000       0.00000000      0.134540826       0.00000000    
           2

 O   2.40585661       0.00000000       0.00000000      0.125400260    
 C   0.00000000       0.00000000      0.125400260       0.00000000    
           2

 O   2.41203189       0.00000000       0.00000000      0.117174879    
 C   0.00000000       0.00000000      0.117174879       0.00000000    
           2

 O   2.41674423       0.00000000       0.00000000      0.110898219    
 C   0.00000000       0.00000000      0.110898219       0.00000000    
           2

 O   2.41942787       0.00000000       0.00000000      0.107323706    
 C   0.00000000       0.00000000      0.107323706       0.00000000    
           2

 O   2.41977954       0.00000000       0.00000000      0.106855154    
 C   0.00000000       0.00000000      0.106855154       0.00000000    
           2

 O   2.41778374       0.00000000       0.00000000      0.109513499    
 C   0.00000000       0.00000000      0.109513499       0.00000000    
           2

 O   2.41371226       0.00000000       0.00000000      0.114936583    
 C   0.00000000       0.00000000      0.114936583       0.00000000    
           2

 O   2.40809941       0.00000000       0.00000000      0.122412920    
 C   0.00000000       0.00000000      0.122412920       0.00000000    
           2

 O   2.40168691       0.00000000       0.00000000      0.130954206    
 C   0.00000000       0.00000000      0.130954206       0.00000000    
           2

 O   2.39533806       0.00000000       0.00000000      0.139410689    
 C   0.00000000       0.00000000      0.139410689       0.00000000    
           2

 O   2.38992190       0.00000000       0.00000000      0.146625042    
 C   0.00000000       0.00000000      0.146625042       0.00000000    
           2

 O   2.38618326       0.00000000       0.00000000      0.151605010    
 C   0.00000000       0.00000000      0.151605010       0.00000000    
           2

 O   2.38462448       0.00000000       0.00000000      0.153681472    
 C   0.00000000       0.00000000      0.153681472       0.00000000    
           2

 O   2.38542533       0.00000000       0.00000000      0.152614683    
 C   0.00000000       0.00000000      0.152614683       0.00000000    
           2

 O   2.38842177       0.00000000       0.00000000      0.148623317    
 C   0.00000000       0.00000000      0.148623317       0.00000000    
           2

 O   2.39314413       0.00000000       0.00000000      0.142333105    
 C   0.00000000       0.00000000      0.142333105       0.00000000    
           2

 O   2.39890265       0.00000000       0.00000000      0.134662703    
 C   0.00000000       0.00000000      0.134662703       0.00000000    
           2

 O   2.40489888       0.00000000       0.00000000      0.126675829    
 C   0.00000000       0.00000000      0.126675829       0.00000000    
           2

 O   2.41033888       0.00000000       0.00000000      0.119429775    
 C   0.00000000       0.00000000      0.119429775       0.00000000    
           2

 O   2.41453314       0.00000000       0.00000000      0.113842934    
 C   0.00000000       0.00000000      0.113842934       0.00000000    
           2

 O   2.41697240       0.00000000       0.00000000      0.110593736    
 C   0.00000000       0.00000000      0.110593736       0.00000000    
           2

 O   2.41737723       0.00000000       0.00000000      0.110054545    
 C   0.00000000       0.00000000      0.110054545       0.00000000    
           2

 O   2.41572237       0.00000000       0.00000000      0.112258919    
 C   0.00000000       0.00000000      0.112258919       0.00000000    
           2

 O   2.41223788       0.00000000       0.00000000      0.116900370    
 C   0.00000000       0.00000000      0.116900370       0.00000000    
           2

 O   2.40738583       0.00000000       0.00000000      0.123363264    
 C   0.00000000       0.00000000      0.123363264       0.00000000    
           2

 O   2.40181112       0.00000000       0.00000000      0.130788609    
 C   0.00000000       0.00000000      0.130788609       0.00000000    
           2

 O   2.39626479       0.00000000       0.00000000      0.138176441    
 C   0.00000000       0.00000000      0.138176441       0.00000000    
           2

 O   2.39150286       0.00000000       0.00000000      0.144519329    
 C   0.00000000       0.00000000      0.144519329       0.00000000    
           2

 O   2.38817644       0.00000000       0.00000000      0.148950145    
 C   0.00000000       0.00000000      0.148950145       0.00000000    
           2

 O   2.38672996       0.00000000       0.00000000      0.150876760    
 C   0.00000000       0.00000000      0.150876760       0.00000000    
           2

 O   2.38733292       0.00000000       0.00000000      0.150073752    
 C   0.00000000       0.00000000      0.150073752       0.00000000    
           2

 O   2.38985801       0.00000000       0.00000000      0.146710485    
 C   0.00000000       0.00000000      0.146710485       0.00000000    
           2

 O   2.39391112       0.00000000       0.00000000      0.141311646    
 C   0.00000000       0.00000000      0.141311646       0.00000000    
           2

 O   2.39890242       0.00000000       0.00000000      0.134663343    
 C   0.00000000       0.00000000      0.134663343       0.00000000    
           2

 O   2.40413928       0.00000000       0.00000000      0.127687901    
 C   0.00000000       0.00000000      0.127687901       0.00000000    
           2

 O   2.40892577       0.00000000       0.00000000      0.121312372    
 C   0.00000000       0.00000000      0.121312372       0.00000000    
           2

 O   2.41265082       0.00000000       0.00000000      0.116350703    
 C   0.00000000       0.00000000      0.116350703       0.00000000    
           2

 O   2.41485763       0.00000000       0.00000000      0.113411397    
 C   0.00000000       0.00000000      0.113411397       0.00000000    
           2

 O   2.41528988       0.00000000       0.00000000      0.112835526    
 C   0.00000000       0.00000000      0.112835526       0.00000000    
           2

 O   2.41391635       0.00000000       0.00000000      0.114665061    
 C   0.00000000       0.00000000      0.114665061       0.00000000    
           2

 O   2.41093159       0.00000000       0.00000000      0.118640788    
 C   0.00000000       0.00000000      0.118640788       0.00000000    
           2

 O   2.40673542       0.00000000       0.00000000      0.124230184    
 C   0.00000000       0.00000000      0.124230184       0.00000000    
           2

 O   2.40188813       0.00000000       0.00000000      0.130686671    
 C   0.00000000       0.00000000      0.130686671       0.00000000    
           2

 O   2.39704323       0.00000000       0.00000000      0.137140214    
 C   0.00000000       0.00000000      0.137140214       0.00000000    
           2

 O   2.39285922       0.00000000       0.00000000      0.142713398    
 C   0.00000000       0.00000000      0.142713398       0.00000000    
           2

 O   2.38990521       0.00000000       0.00000000      0.146648243    
 C   0.00000000       0.00000000      0.146648243       0.00000000    
           2

 O   2.38857412       0.00000000       0.00000000      0.148421407    
 C   0.00000000       0.00000000      0.148421407       0.00000000    
           2

 O   2.38902307       0.00000000       0.00000000      0.147823468    
 C   0.00000000       0.00000000      0.147823468       0.00000000    
           2

 O   2.39115381       0.00000000       0.00000000      0.144985363    
 C   0.00000000       0.00000000      0.144985363       0.00000000    
           2

 O   2.39463544       0.00000000       0.00000000      0.140347958    
 C   0.00000000       0.00000000      0.140347958       0.00000000    
           2

 O   2.39896226       0.00000000       0.00000000      0.134584531    
 C   0.00000000       0.00000000      0.134584531       0.00000000    
           2

 O   2.40353417       0.00000000       0.00000000      0.128494740    
 C   0.00000000       0.00000000      0.128494740       0.00000000    
           2

 O   2.40774155       0.00000000       0.00000000      0.122890554    
 C   0.00000000       0.00000000      0.122890554       0.00000000    
           2

 O   2.41104388       0.00000000       0.00000000      0.118491851    
 C   0.00000000       0.00000000      0.118491851       0.00000000    
           2

 O   2.41303277       0.00000000       0.00000000      0.115842700    
 C   0.00000000       0.00000000      0.115842700       0.00000000    
           2

 O   2.41347480       0.00000000       0.00000000      0.115253814    
 C   0.00000000       0.00000000      0.115253814       0.00000000    
           2

 O   2.41233468       0.00000000       0.00000000      0.116772458    
 C   0.00000000       0.00000000      0.116772458       0.00000000    
           2

 O   2.40977669       0.00000000       0.00000000      0.120179608    
 C   0.00000000       0.00000000      0.120179608       0.00000000    
           2

 O   2.40614653       0.00000000       0.00000000      0.125014886    
 C   0.00000000       0.00000000      0.125014886       0.00000000    
           2

 O   2.40193129       0.00000000       0.00000000      0.130629525    
 C   0.00000000       0.00000000      0.130629525       0.00000000    
           2

 O   2.39769936       0.00000000       0.00000000      0.136266381    
 C   0.00000000       0.00000000      0.136266381       0.00000000    
           2

 O   2.39402485       0.00000000       0.00000000      0.141160920    
 C   0.00000000       0.00000000      0.141160920       0.00000000    
           2

 O   2.39140511       0.00000000       0.00000000      0.144650370    
 C   0.00000000       0.00000000      0.144650370       0.00000000    
           2

 O   2.39018726       0.00000000       0.00000000      0.146272540    
 C   0.00000000       0.00000000      0.146272540       0.00000000    
           2

 O   2.39051604       0.00000000       0.00000000      0.145834506    
 C   0.00000000       0.00000000      0.145834506       0.00000000    
           2

 O   2.39231586       0.00000000       0.00000000      0.143437088    
 C   0.00000000       0.00000000      0.143437088       0.00000000    
