           2

 O   2.46824169       0.00000000       0.00000000       4.23020199E-02
 C   0.00000000       0.00000000       4.23020199E-02   0.00000000    
           2

 O   2.41308451       0.00000000       0.00000000      0.115770891    
 C   0.00000000       0.00000000      0.115770891       0.00000000    
           2

 O   2.38147378       0.00000000       0.00000000      0.157876238    
 C   0.00000000       0.00000000      0.157876238       0.00000000    
           2

 O   2.37964892       0.00000000       0.00000000      0.160306856    
 C   0.00000000       0.00000000      0.160306856       0.00000000    
           2

 O   2.38867807       0.00000000       0.00000000      0.148280084    
 C   0.00000000       0.00000000      0.148280084       0.00000000    
           2

 O   2.39911199       0.00000000       0.00000000      0.134382099    
 C   0.00000000       0.00000000      0.134382099       0.00000000    
           2

 O   2.40606213       0.00000000       0.00000000      0.125124425    
 C   0.00000000       0.00000000      0.125124425       0.00000000    
           2

 O   2.40782762       0.00000000       0.00000000      0.122772954    
 C   0.00000000       0.00000000      0.122772954       0.00000000    
           2

 O   2.40564489       0.00000000       0.00000000      0.125680298    
 C   0.00000000       0.00000000      0.125680298       0.00000000    
           2

 O   2.40226507       0.00000000       0.00000000      0.130182087    
 C   0.00000000       0.00000000      0.130182087       0.00000000    
           2

 O   2.39992237       0.00000000       0.00000000      0.133302614    
 C   0.00000000       0.00000000      0.133302614       0.00000000    
           2

 O   2.39929843       0.00000000       0.00000000      0.134133548    
 C   0.00000000       0.00000000      0.134133548       0.00000000    
           2

 O   2.39989495       0.00000000       0.00000000      0.133338839    
 C   0.00000000       0.00000000      0.133338839       0.00000000    
           2

 O   2.40086460       0.00000000       0.00000000      0.132047206    
 C   0.00000000       0.00000000      0.132047206       0.00000000    
           2

 O   2.40157557       0.00000000       0.00000000      0.131100088    
 C   0.00000000       0.00000000      0.131100088       0.00000000    
           2

 O   2.40180254       0.00000000       0.00000000      0.130797625    
 C   0.00000000       0.00000000      0.130797625       0.00000000    
           2

 O   2.40165210       0.00000000       0.00000000      0.130998135    
 C   0.00000000       0.00000000      0.130998135       0.00000000    
           2

 O   2.40136600       0.00000000       0.00000000      0.131379247    
 C   0.00000000       0.00000000      0.131379247       0.00000000    
           2

 O   2.40114403       0.00000000       0.00000000      0.131674796    
 C   0.00000000       0.00000000      0.131674796       0.00000000    
           2

 O   2.40106487       0.00000000       0.00000000      0.131780118    
 C   0.00000000       0.00000000      0.131780118       0.00000000    
           2

 O   2.40110230       0.00000000       0.00000000      0.131730229    
 C   0.00000000       0.00000000      0.131730229       0.00000000    
           2

 O   2.40118551       0.00000000       0.00000000      0.131619379    
 C   0.00000000       0.00000000      0.131619379       0.00000000    
           2

 O   2.40125370       0.00000000       0.00000000      0.131528601    
 C   0.00000000       0.00000000      0.131528601       0.00000000    
           2

 O   2.40128064       0.00000000       0.00000000      0.131492630    
 C   0.00000000       0.00000000      0.131492630       0.00000000    
           2

 O   2.40127206       0.00000000       0.00000000      0.131504163    
 C   0.00000000       0.00000000      0.131504163       0.00000000    
           2

 O   2.40124798       0.00000000       0.00000000      0.131536305    
 C   0.00000000       0.00000000      0.131536305       0.00000000    
           2

 O   2.40122700       0.00000000       0.00000000      0.131564245    
 C   0.00000000       0.00000000      0.131564245       0.00000000    
           2

 O   2.40121794       0.00000000       0.00000000      0.131576329    
 C   0.00000000       0.00000000      0.131576329       0.00000000    
           2

 O   2.40121984       0.00000000       0.00000000      0.131573901    
 C   0.00000000       0.00000000      0.131573901       0.00000000    
           2

 O   2.40122676       0.00000000       0.00000000      0.131564692    
 C   0.00000000       0.00000000      0.131564692       0.00000000    
           2

 O   2.40123320       0.00000000       0.00000000      0.131556183    
 C   0.00000000       0.00000000      0.131556183       0.00000000    
           2

 O   2.40123630       0.00000000       0.00000000      0.131552190    
 C   0.00000000       0.00000000      0.131552190       0.00000000    
           2

 O   2.40123606       0.00000000       0.00000000      0.131552652    
 C   0.00000000       0.00000000      0.131552652       0.00000000    
           2

 O   2.40123415       0.00000000       0.00000000      0.131555349    
 C   0.00000000       0.00000000      0.131555349       0.00000000    
           2

 O   2.40123224       0.00000000       0.00000000      0.131557971    
 C   0.00000000       0.00000000      0.131557971       0.00000000    
           2

 O   2.40123129       0.00000000       0.00000000      0.131559372    
 C   0.00000000       0.00000000      0.131559372       0.00000000    
           2

 O   2.40123129       0.00000000       0.00000000      0.131559357    
 C   0.00000000       0.00000000      0.131559357       0.00000000    
           2

 O   2.40123177       0.00000000       0.00000000      0.131558582    
 C   0.00000000       0.00000000      0.131558582       0.00000000    
           2

 O   2.40123224       0.00000000       0.00000000      0.131557807    
 C   0.00000000       0.00000000      0.131557807       0.00000000    
           2

 O   2.40123248       0.00000000       0.00000000      0.131557360    
 C   0.00000000       0.00000000      0.131557360       0.00000000    
           2

 O   2.40123248       0.00000000       0.00000000      0.131557241    
 C   0.00000000       0.00000000      0.131557241       0.00000000    
           2

 O   2.40123248       0.00000000       0.00000000      0.131557360    
 C   0.00000000       0.00000000      0.131557360       0.00000000    
           2

 O   2.40123224       0.00000000       0.00000000      0.131557599    
 C   0.00000000       0.00000000      0.131557599       0.00000000    
           2

 O   2.40123200       0.00000000       0.00000000      0.131557792    
 C   0.00000000       0.00000000      0.131557792       0.00000000    
           2

 O   2.40123200       0.00000000       0.00000000      0.131557778    
 C   0.00000000       0.00000000      0.131557778       0.00000000    
           2

 O   2.40123200       0.00000000       0.00000000      0.131557733    
 C   0.00000000       0.00000000      0.131557733       0.00000000    
           2

 O   2.40123200       0.00000000       0.00000000      0.131557584    
 C   0.00000000       0.00000000      0.131557584       0.00000000    
           2

 O   2.40123200       0.00000000       0.00000000      0.131557494    
 C   0.00000000       0.00000000      0.131557494       0.00000000    
           2

 O   2.40123200       0.00000000       0.00000000      0.131557405    
 C   0.00000000       0.00000000      0.131557405       0.00000000    
           2

 O   2.40123200       0.00000000       0.00000000      0.131557360    
 C   0.00000000       0.00000000      0.131557360       0.00000000    
           2

 O   2.40123200       0.00000000       0.00000000      0.131557375    
 C   0.00000000       0.00000000      0.131557375       0.00000000    
           2

 O   2.40123200       0.00000000       0.00000000      0.131557390    
 C   0.00000000       0.00000000      0.131557390       0.00000000    
           2

 O   2.40123200       0.00000000       0.00000000      0.131557405    
 C   0.00000000       0.00000000      0.131557405       0.00000000    
           2

 O   2.40123200       0.00000000       0.00000000      0.131557420    
 C   0.00000000       0.00000000      0.131557420       0.00000000    
           2

 O   2.40123200       0.00000000       0.00000000      0.131557435    
 C   0.00000000       0.00000000      0.131557435       0.00000000    
           2

 O   2.40123200       0.00000000       0.00000000      0.131557450    
 C   0.00000000       0.00000000      0.131557450       0.00000000    
           2

 O   2.40123200       0.00000000       0.00000000      0.131557465    
 C   0.00000000       0.00000000      0.131557465       0.00000000    
           2

 O   2.40123200       0.00000000       0.00000000      0.131557480    
 C   0.00000000       0.00000000      0.131557480       0.00000000    
           2

 O   2.40123200       0.00000000       0.00000000      0.131557494    
 C   0.00000000       0.00000000      0.131557494       0.00000000    
           2

 O   2.40123200       0.00000000       0.00000000      0.131557509    
 C   0.00000000       0.00000000      0.131557509       0.00000000    
           2

 O   2.40123200       0.00000000       0.00000000      0.131557524    
 C   0.00000000       0.00000000      0.131557524       0.00000000    
           2

 O   2.40123200       0.00000000       0.00000000      0.131557539    
 C   0.00000000       0.00000000      0.131557539       0.00000000    
           2

 O   2.40123200       0.00000000       0.00000000      0.131557554    
 C   0.00000000       0.00000000      0.131557554       0.00000000    
           2

 O   2.40123200       0.00000000       0.00000000      0.131557569    
 C   0.00000000       0.00000000      0.131557569       0.00000000    
           2

 O   2.40123200       0.00000000       0.00000000      0.131557524    
 C   0.00000000       0.00000000      0.131557524       0.00000000    
           2

 O   2.40123200       0.00000000       0.00000000      0.131557480    
 C   0.00000000       0.00000000      0.131557480       0.00000000    
           2

 O   2.40123200       0.00000000       0.00000000      0.131557435    
 C   0.00000000       0.00000000      0.131557435       0.00000000    
           2

 O   2.40123200       0.00000000       0.00000000      0.131557390    
 C   0.00000000       0.00000000      0.131557390       0.00000000    
           2

 O   2.40123200       0.00000000       0.00000000      0.131557405    
 C   0.00000000       0.00000000      0.131557405       0.00000000    
           2

 O   2.40123200       0.00000000       0.00000000      0.131557420    
 C   0.00000000       0.00000000      0.131557420       0.00000000    
           2

 O   2.40123200       0.00000000       0.00000000      0.131557435    
 C   0.00000000       0.00000000      0.131557435       0.00000000    
           2

 O   2.40123200       0.00000000       0.00000000      0.131557450    
 C   0.00000000       0.00000000      0.131557450       0.00000000    
           2

 O   2.40123200       0.00000000       0.00000000      0.131557465    
 C   0.00000000       0.00000000      0.131557465       0.00000000    
           2

 O   2.40123200       0.00000000       0.00000000      0.131557480    
 C   0.00000000       0.00000000      0.131557480       0.00000000    
           2

 O   2.40123200       0.00000000       0.00000000      0.131557494    
 C   0.00000000       0.00000000      0.131557494       0.00000000    
           2

 O   2.40123200       0.00000000       0.00000000      0.131557509    
 C   0.00000000       0.00000000      0.131557509       0.00000000    
           2

 O   2.40123200       0.00000000       0.00000000      0.131557524    
 C   0.00000000       0.00000000      0.131557524       0.00000000    
           2

 O   2.40123200       0.00000000       0.00000000      0.131557539    
 C   0.00000000       0.00000000      0.131557539       0.00000000    
           2

 O   2.40123200       0.00000000       0.00000000      0.131557554    
 C   0.00000000       0.00000000      0.131557554       0.00000000    
           2

 O   2.40123200       0.00000000       0.00000000      0.131557569    
 C   0.00000000       0.00000000      0.131557569       0.00000000    
           2

 O   2.40123200       0.00000000       0.00000000      0.131557524    
 C   0.00000000       0.00000000      0.131557524       0.00000000    
           2

 O   2.40123200       0.00000000       0.00000000      0.131557480    
 C   0.00000000       0.00000000      0.131557480       0.00000000    
           2

 O   2.40123200       0.00000000       0.00000000      0.131557435    
 C   0.00000000       0.00000000      0.131557435       0.00000000    
           2

 O   2.40123200       0.00000000       0.00000000      0.131557390    
 C   0.00000000       0.00000000      0.131557390       0.00000000    
           2

 O   2.40123200       0.00000000       0.00000000      0.131557405    
 C   0.00000000       0.00000000      0.131557405       0.00000000    
           2

 O   2.40123200       0.00000000       0.00000000      0.131557420    
 C   0.00000000       0.00000000      0.131557420       0.00000000    
           2

 O   2.40123200       0.00000000       0.00000000      0.131557435    
 C   0.00000000       0.00000000      0.131557435       0.00000000    
           2

 O   2.40123200       0.00000000       0.00000000      0.131557450    
 C   0.00000000       0.00000000      0.131557450       0.00000000    
           2

 O   2.40123200       0.00000000       0.00000000      0.131557465    
 C   0.00000000       0.00000000      0.131557465       0.00000000    
           2

 O   2.40123200       0.00000000       0.00000000      0.131557480    
 C   0.00000000       0.00000000      0.131557480       0.00000000    
           2

 O   2.40123200       0.00000000       0.00000000      0.131557494    
 C   0.00000000       0.00000000      0.131557494       0.00000000    
           2

 O   2.40123200       0.00000000       0.00000000      0.131557509    
 C   0.00000000       0.00000000      0.131557509       0.00000000    
           2

 O   2.40123200       0.00000000       0.00000000      0.131557524    
 C   0.00000000       0.00000000      0.131557524       0.00000000    
           2

 O   2.40123200       0.00000000       0.00000000      0.131557539    
 C   0.00000000       0.00000000      0.131557539       0.00000000    
           2

 O   2.40123200       0.00000000       0.00000000      0.131557554    
 C   0.00000000       0.00000000      0.131557554       0.00000000    
           2

 O   2.40123200       0.00000000       0.00000000      0.131557569    
 C   0.00000000       0.00000000      0.131557569       0.00000000    
           2

 O   2.40123200       0.00000000       0.00000000      0.131557524    
 C   0.00000000       0.00000000      0.131557524       0.00000000    
           2

 O   2.40123200       0.00000000       0.00000000      0.131557480    
 C   0.00000000       0.00000000      0.131557480       0.00000000    
           2

 O   2.40123200       0.00000000       0.00000000      0.131557435    
 C   0.00000000       0.00000000      0.131557435       0.00000000    
           2

 O   2.40123200       0.00000000       0.00000000      0.131557390    
 C   0.00000000       0.00000000      0.131557390       0.00000000    
