           2

 O   2.50000000       0.00000000       0.00000000       0.00000000    
 C   0.00000000       0.00000000       0.00000000       0.00000000    
           2

 O   2.48983741       0.00000000       0.00000000       1.35366451E-02
 C   0.00000000       0.00000000       1.35366451E-02   0.00000000    
           2

 O   2.46951199       0.00000000       0.00000000       4.06099334E-02
 C   0.00000000       0.00000000       4.06099334E-02   0.00000000    
           2

 O   2.43971467       0.00000000       0.00000000       8.02996159E-02
 C   0.00000000       0.00000000       8.02996159E-02   0.00000000    
           2

 O   2.40203786       0.00000000       0.00000000      0.130484775    
 C   0.00000000       0.00000000      0.130484775       0.00000000    
           2

 O   2.35939097       0.00000000       0.00000000      0.187290072    
 C   0.00000000       0.00000000      0.187290072       0.00000000    
           2

 O   2.31662416       0.00000000       0.00000000      0.244255245    
 C   0.00000000       0.00000000      0.244255245       0.00000000    
           2

 O   2.28119469       0.00000000       0.00000000      0.291447043    
 C   0.00000000       0.00000000      0.291447043       0.00000000    
           2

 O   2.26325130       0.00000000       0.00000000      0.315347642    
 C   0.00000000       0.00000000      0.315347642       0.00000000    
           2

 O   2.27375364       0.00000000       0.00000000      0.301358759    
 C   0.00000000       0.00000000      0.301358759       0.00000000    
           2

 O   2.31930876       0.00000000       0.00000000      0.240679592    
 C   0.00000000       0.00000000      0.240679592       0.00000000    
           2

 O   2.39595628       0.00000000       0.00000000      0.138585567    
 C   0.00000000       0.00000000      0.138585567       0.00000000    
           2

 O   2.48936081       0.00000000       0.00000000       1.41713470E-02
 C   0.00000000       0.00000000       1.41713470E-02   0.00000000    
           2

 O   2.58357000       0.00000000       0.00000000     -0.111314625    
 C   0.00000000       0.00000000     -0.111314625       0.00000000    
           2

 O   2.66834140       0.00000000       0.00000000     -0.224229559    
 C   0.00000000       0.00000000     -0.224229559       0.00000000    
           2

 O   2.73937774       0.00000000       0.00000000     -0.318849444    
 C   0.00000000       0.00000000     -0.318849444       0.00000000    
           2

 O   2.79569411       0.00000000       0.00000000     -0.393862605    
 C   0.00000000       0.00000000     -0.393862605       0.00000000    
           2

 O   2.83762813       0.00000000       0.00000000     -0.449718505    
 C   0.00000000       0.00000000     -0.449718505       0.00000000    
           2

 O   2.86587358       0.00000000       0.00000000     -0.487341106    
 C   0.00000000       0.00000000     -0.487341106       0.00000000    
           2

 O   2.88109040       0.00000000       0.00000000     -0.507609844    
 C   0.00000000       0.00000000     -0.507609844       0.00000000    
           2

 O   2.88376617       0.00000000       0.00000000     -0.511173964    
 C   0.00000000       0.00000000     -0.511173964       0.00000000    
           2

 O   2.87417293       0.00000000       0.00000000     -0.498395890    
 C   0.00000000       0.00000000     -0.498395890       0.00000000    
           2

 O   2.85235906       0.00000000       0.00000000     -0.469340056    
 C   0.00000000       0.00000000     -0.469340056       0.00000000    
           2

 O   2.81815195       0.00000000       0.00000000     -0.423776388    
 C   0.00000000       0.00000000     -0.423776388       0.00000000    
           2

 O   2.77116728       0.00000000       0.00000000     -0.361193031    
 C   0.00000000       0.00000000     -0.361193031       0.00000000    
           2

 O   2.71083617       0.00000000       0.00000000     -0.280832261    
 C   0.00000000       0.00000000     -0.280832261       0.00000000    
           2

 O   2.63648057       0.00000000       0.00000000     -0.181791127    
 C   0.00000000       0.00000000     -0.181791127       0.00000000    
           2

 O   2.54751682       0.00000000       0.00000000      -6.32921383E-02
 C   0.00000000       0.00000000      -6.32921383E-02   0.00000000    
           2

 O   2.44397974       0.00000000       0.00000000       7.46186897E-02
 C   0.00000000       0.00000000       7.46186897E-02   0.00000000    
           2

 O   2.32784224       0.00000000       0.00000000      0.229313195    
 C   0.00000000       0.00000000      0.229313195       0.00000000    
           2

 O   2.20627213       0.00000000       0.00000000      0.391243815    
 C   0.00000000       0.00000000      0.391243815       0.00000000    
           2

 O   2.09922862       0.00000000       0.00000000      0.533825159    
 C   0.00000000       0.00000000      0.533825159       0.00000000    
           2

 O   2.05402398       0.00000000       0.00000000      0.594037354    
 C   0.00000000       0.00000000      0.594037354       0.00000000    
           2

 O   2.15485811       0.00000000       0.00000000      0.459726870    
 C   0.00000000       0.00000000      0.459726870       0.00000000    
           2

 O   2.45667911       0.00000000       0.00000000       5.77030778E-02
 C   0.00000000       0.00000000       5.77030778E-02   0.00000000    
           2

 O   2.85412002       0.00000000       0.00000000     -0.471685827    
 C   0.00000000       0.00000000     -0.471685827       0.00000000    
           2

 O   3.24484491       0.00000000       0.00000000     -0.992128909    
 C   0.00000000       0.00000000     -0.992128909       0.00000000    
           2

 O   3.62282276       0.00000000       0.00000000      -1.49559295    
 C   0.00000000       0.00000000      -1.49559295       0.00000000    
           2

 O   3.99469256       0.00000000       0.00000000      -1.99092102    
 C   0.00000000       0.00000000      -1.99092102       0.00000000    
           2

 O   4.36402988       0.00000000       0.00000000      -2.48287582    
 C   0.00000000       0.00000000      -2.48287582       0.00000000    
           2

 O   4.73235321       0.00000000       0.00000000      -2.97347999    
 C   0.00000000       0.00000000      -2.97347999       0.00000000    
           2

 O   5.10027504       0.00000000       0.00000000      -3.46354938    
 C   0.00000000       0.00000000      -3.46354938       0.00000000    
           2

 O   5.46803856       0.00000000       0.00000000      -3.95340800    
 C   0.00000000       0.00000000      -3.95340800       0.00000000    
           2

 O   5.83573961       0.00000000       0.00000000      -4.44318342    
 C   0.00000000       0.00000000      -4.44318342       0.00000000    
           2

 O   6.20341635       0.00000000       0.00000000      -4.93292618    
 C   0.00000000       0.00000000      -4.93292618       0.00000000    
           2

 O   6.57108307       0.00000000       0.00000000      -5.42265606    
 C   0.00000000       0.00000000      -5.42265606       0.00000000    
           2

 O   6.93874645       0.00000000       0.00000000      -5.91238117    
 C   0.00000000       0.00000000      -5.91238117       0.00000000    
           2

 O   7.30640793       0.00000000       0.00000000      -6.40210438    
 C   0.00000000       0.00000000      -6.40210438       0.00000000    
           2

 O   7.67406893       0.00000000       0.00000000      -6.89182663    
 C   0.00000000       0.00000000      -6.89182663       0.00000000    
           2

 O   8.04172993       0.00000000       0.00000000      -7.38154840    
 C   0.00000000       0.00000000      -7.38154840       0.00000000    
           2

 O   8.40939045       0.00000000       0.00000000      -7.87127018    
 C   0.00000000       0.00000000      -7.87127018       0.00000000    
           2

 O   8.77705097       0.00000000       0.00000000      -8.36099243    
 C   0.00000000       0.00000000      -8.36099243       0.00000000    
           2

 O   9.14471149       0.00000000       0.00000000      -8.85071373    
 C   0.00000000       0.00000000      -8.85071373       0.00000000    
           2

 O   9.51237202       0.00000000       0.00000000      -9.34043503    
 C   0.00000000       0.00000000      -9.34043503       0.00000000    
           2

 O   9.88003254       0.00000000       0.00000000      -9.83015633    
 C   0.00000000       0.00000000      -9.83015633       0.00000000    
           2

 O   10.2476931       0.00000000       0.00000000      -10.3198776    
 C   0.00000000       0.00000000      -10.3198776       0.00000000    
           2

 O   10.6153536       0.00000000       0.00000000      -10.8095989    
 C   0.00000000       0.00000000      -10.8095989       0.00000000    
           2

 O   10.9830141       0.00000000       0.00000000      -11.2993202    
 C   0.00000000       0.00000000      -11.2993202       0.00000000    
           2

 O   11.3506746       0.00000000       0.00000000      -11.7890415    
 C   0.00000000       0.00000000      -11.7890415       0.00000000    
           2

 O   11.7183352       0.00000000       0.00000000      -12.2787628    
 C   0.00000000       0.00000000      -12.2787628       0.00000000    
           2

 O   12.0859957       0.00000000       0.00000000      -12.7684841    
 C   0.00000000       0.00000000      -12.7684841       0.00000000    
           2

 O   12.4536562       0.00000000       0.00000000      -13.2582054    
 C   0.00000000       0.00000000      -13.2582054       0.00000000    
           2

 O   12.8213167       0.00000000       0.00000000      -13.7479267    
 C   0.00000000       0.00000000      -13.7479267       0.00000000    
           2

 O   13.1889772       0.00000000       0.00000000      -14.2376480    
 C   0.00000000       0.00000000      -14.2376480       0.00000000    
           2

 O   13.5566378       0.00000000       0.00000000      -14.7273693    
 C   0.00000000       0.00000000      -14.7273693       0.00000000    
           2

 O   13.9242983       0.00000000       0.00000000      -15.2170906    
 C   0.00000000       0.00000000      -15.2170906       0.00000000    
           2

 O   14.2919588       0.00000000       0.00000000      -15.7068119    
 C   0.00000000       0.00000000      -15.7068119       0.00000000    
           2

 O   14.6596193       0.00000000       0.00000000      -16.1965332    
 C   0.00000000       0.00000000      -16.1965332       0.00000000    
           2

 O   15.0272799       0.00000000       0.00000000      -16.6862545    
 C   0.00000000       0.00000000      -16.6862545       0.00000000    
           2

 O   15.3949404       0.00000000       0.00000000      -17.1759758    
 C   0.00000000       0.00000000      -17.1759758       0.00000000    
           2

 O   15.7626009       0.00000000       0.00000000      -17.6656971    
 C   0.00000000       0.00000000      -17.6656971       0.00000000    
           2

 O   16.1302624       0.00000000       0.00000000      -18.1554184    
 C   0.00000000       0.00000000      -18.1554184       0.00000000    
           2

 O   16.4979229       0.00000000       0.00000000      -18.6451397    
 C   0.00000000       0.00000000      -18.6451397       0.00000000    
           2

 O   16.8655834       0.00000000       0.00000000      -19.1348610    
 C   0.00000000       0.00000000      -19.1348610       0.00000000    
           2

 O   17.2332439       0.00000000       0.00000000      -19.6245823    
 C   0.00000000       0.00000000      -19.6245823       0.00000000    
           2

 O   17.6009045       0.00000000       0.00000000      -20.1143036    
 C   0.00000000       0.00000000      -20.1143036       0.00000000    
           2

 O   17.9685650       0.00000000       0.00000000      -20.6040249    
 C   0.00000000       0.00000000      -20.6040249       0.00000000    
           2

 O   18.3362255       0.00000000       0.00000000      -21.0937462    
 C   0.00000000       0.00000000      -21.0937462       0.00000000    
           2

 O   18.7038860       0.00000000       0.00000000      -21.5834675    
 C   0.00000000       0.00000000      -21.5834675       0.00000000    
           2

 O   19.0715466       0.00000000       0.00000000      -22.0731888    
 C   0.00000000       0.00000000      -22.0731888       0.00000000    
           2

 O   19.4392071       0.00000000       0.00000000      -22.5629101    
 C   0.00000000       0.00000000      -22.5629101       0.00000000    
           2

 O   19.8068676       0.00000000       0.00000000      -23.0526314    
 C   0.00000000       0.00000000      -23.0526314       0.00000000    
           2

 O   20.1745281       0.00000000       0.00000000      -23.5423527    
 C   0.00000000       0.00000000      -23.5423527       0.00000000    
           2

 O   20.5421886       0.00000000       0.00000000      -24.0320740    
 C   0.00000000       0.00000000      -24.0320740       0.00000000    
           2

 O   20.9098492       0.00000000       0.00000000      -24.5217953    
 C   0.00000000       0.00000000      -24.5217953       0.00000000    
           2

 O   21.2775097       0.00000000       0.00000000      -25.0115166    
 C   0.00000000       0.00000000      -25.0115166       0.00000000    
           2

 O   21.6451702       0.00000000       0.00000000      -25.5012379    
 C   0.00000000       0.00000000      -25.5012379       0.00000000    
           2

 O   22.0128307       0.00000000       0.00000000      -25.9909592    
 C   0.00000000       0.00000000      -25.9909592       0.00000000    
           2

 O   22.3804913       0.00000000       0.00000000      -26.4806805    
 C   0.00000000       0.00000000      -26.4806805       0.00000000    
           2

 O   22.7481518       0.00000000       0.00000000      -26.9704018    
 C   0.00000000       0.00000000      -26.9704018       0.00000000    
           2

 O   23.1158123       0.00000000       0.00000000      -27.4601231    
 C   0.00000000       0.00000000      -27.4601231       0.00000000    
           2

 O   23.4834728       0.00000000       0.00000000      -27.9498444    
 C   0.00000000       0.00000000      -27.9498444       0.00000000    
           2

 O   23.8511333       0.00000000       0.00000000      -28.4395657    
 C   0.00000000       0.00000000      -28.4395657       0.00000000    
           2

 O   24.2187939       0.00000000       0.00000000      -28.9292870    
 C   0.00000000       0.00000000      -28.9292870       0.00000000    
           2

 O   24.5864544       0.00000000       0.00000000      -29.4190083    
 C   0.00000000       0.00000000      -29.4190083       0.00000000    
           2

 O   24.9541149       0.00000000       0.00000000      -29.9087296    
 C   0.00000000       0.00000000      -29.9087296       0.00000000    
           2

 O   25.3217754       0.00000000       0.00000000      -30.3984509    
 C   0.00000000       0.00000000      -30.3984509       0.00000000    
           2

 O   25.6894360       0.00000000       0.00000000      -30.8881721    
 C   0.00000000       0.00000000      -30.8881721       0.00000000    
           2

 O   26.0570965       0.00000000       0.00000000      -31.3778934    
 C   0.00000000       0.00000000      -31.3778934       0.00000000    
           2

 O   26.4247570       0.00000000       0.00000000      -31.8676147    
 C   0.00000000       0.00000000      -31.8676147       0.00000000    
           2

 O   26.7924175       0.00000000       0.00000000      -32.3573380    
 C   0.00000000       0.00000000      -32.3573380       0.00000000    
           2

 O   27.1600780       0.00000000       0.00000000      -32.8470612    
 C   0.00000000       0.00000000      -32.8470612       0.00000000    
           2

 O   27.5277386       0.00000000       0.00000000      -33.3367844    
 C   0.00000000       0.00000000      -33.3367844       0.00000000    
           2

 O   27.8953991       0.00000000       0.00000000      -33.8265076    
 C   0.00000000       0.00000000      -33.8265076       0.00000000    
           2

 O   28.2630596       0.00000000       0.00000000      -34.3162308    
 C   0.00000000       0.00000000      -34.3162308       0.00000000    
           2

 O   28.6307201       0.00000000       0.00000000      -34.8059540    
 C   0.00000000       0.00000000      -34.8059540       0.00000000    
           2

 O   28.9983807       0.00000000       0.00000000      -35.2956772    
 C   0.00000000       0.00000000      -35.2956772       0.00000000    
           2

 O   29.3660412       0.00000000       0.00000000      -35.7854004    
 C   0.00000000       0.00000000      -35.7854004       0.00000000    
           2

 O   29.7337017       0.00000000       0.00000000      -36.2751236    
 C   0.00000000       0.00000000      -36.2751236       0.00000000    
           2

 O   30.1013622       0.00000000       0.00000000      -36.7648468    
 C   0.00000000       0.00000000      -36.7648468       0.00000000    
           2

 O   30.4690228       0.00000000       0.00000000      -37.2545700    
 C   0.00000000       0.00000000      -37.2545700       0.00000000    
           2

 O   30.8366833       0.00000000       0.00000000      -37.7442932    
 C   0.00000000       0.00000000      -37.7442932       0.00000000    
           2

 O   31.2043438       0.00000000       0.00000000      -38.2340164    
 C   0.00000000       0.00000000      -38.2340164       0.00000000    
           2

 O   31.5720043       0.00000000       0.00000000      -38.7237396    
 C   0.00000000       0.00000000      -38.7237396       0.00000000    
           2

 O   31.9396648       0.00000000       0.00000000      -39.2134628    
 C   0.00000000       0.00000000      -39.2134628       0.00000000    
           2

 O   32.3073273       0.00000000       0.00000000      -39.7031860    
 C   0.00000000       0.00000000      -39.7031860       0.00000000    
           2

 O   32.6749878       0.00000000       0.00000000      -40.1929092    
 C   0.00000000       0.00000000      -40.1929092       0.00000000    
           2

 O   33.0426483       0.00000000       0.00000000      -40.6826324    
 C   0.00000000       0.00000000      -40.6826324       0.00000000    
           2

 O   33.4103088       0.00000000       0.00000000      -41.1723557    
 C   0.00000000       0.00000000      -41.1723557       0.00000000    
           2

 O   33.7779694       0.00000000       0.00000000      -41.6620789    
 C   0.00000000       0.00000000      -41.6620789       0.00000000    
           2

 O   34.1456299       0.00000000       0.00000000      -42.1518021    
 C   0.00000000       0.00000000      -42.1518021       0.00000000    
           2

 O   34.5132904       0.00000000       0.00000000      -42.6415253    
 C   0.00000000       0.00000000      -42.6415253       0.00000000    
           2

 O   34.8809509       0.00000000       0.00000000      -43.1312485    
 C   0.00000000       0.00000000      -43.1312485       0.00000000    
           2

 O   35.2486115       0.00000000       0.00000000      -43.6209717    
 C   0.00000000       0.00000000      -43.6209717       0.00000000    
           2

 O   35.6162720       0.00000000       0.00000000      -44.1106949    
 C   0.00000000       0.00000000      -44.1106949       0.00000000    
           2

 O   35.9839325       0.00000000       0.00000000      -44.6004181    
 C   0.00000000       0.00000000      -44.6004181       0.00000000    
           2

 O   36.3515930       0.00000000       0.00000000      -45.0901413    
 C   0.00000000       0.00000000      -45.0901413       0.00000000    
           2

 O   36.7192535       0.00000000       0.00000000      -45.5798645    
 C   0.00000000       0.00000000      -45.5798645       0.00000000    
           2

 O   37.0869141       0.00000000       0.00000000      -46.0695877    
 C   0.00000000       0.00000000      -46.0695877       0.00000000    
           2

 O   37.4545746       0.00000000       0.00000000      -46.5593109    
 C   0.00000000       0.00000000      -46.5593109       0.00000000    
           2

 O   37.8222351       0.00000000       0.00000000      -47.0490341    
 C   0.00000000       0.00000000      -47.0490341       0.00000000    
           2

 O   38.1898956       0.00000000       0.00000000      -47.5387573    
 C   0.00000000       0.00000000      -47.5387573       0.00000000    
           2

 O   38.5575562       0.00000000       0.00000000      -48.0284805    
 C   0.00000000       0.00000000      -48.0284805       0.00000000    
           2

 O   38.9252167       0.00000000       0.00000000      -48.5182037    
 C   0.00000000       0.00000000      -48.5182037       0.00000000    
           2

 O   39.2928772       0.00000000       0.00000000      -49.0079269    
 C   0.00000000       0.00000000      -49.0079269       0.00000000    
           2

 O   39.6605377       0.00000000       0.00000000      -49.4976501    
 C   0.00000000       0.00000000      -49.4976501       0.00000000    
           2

 O   40.0281982       0.00000000       0.00000000      -49.9873734    
 C   0.00000000       0.00000000      -49.9873734       0.00000000    
           2

 O   40.3958588       0.00000000       0.00000000      -50.4770966    
 C   0.00000000       0.00000000      -50.4770966       0.00000000    
           2

 O   40.7635193       0.00000000       0.00000000      -50.9668198    
 C   0.00000000       0.00000000      -50.9668198       0.00000000    
           2

 O   41.1311798       0.00000000       0.00000000      -51.4565430    
 C   0.00000000       0.00000000      -51.4565430       0.00000000    
           2

 O   41.4988403       0.00000000       0.00000000      -51.9462662    
 C   0.00000000       0.00000000      -51.9462662       0.00000000    
           2

 O   41.8665009       0.00000000       0.00000000      -52.4359894    
 C   0.00000000       0.00000000      -52.4359894       0.00000000    
           2

 O   42.2341614       0.00000000       0.00000000      -52.9257126    
 C   0.00000000       0.00000000      -52.9257126       0.00000000    
           2

 O   42.6018219       0.00000000       0.00000000      -53.4154358    
 C   0.00000000       0.00000000      -53.4154358       0.00000000    
           2

 O   42.9694824       0.00000000       0.00000000      -53.9051590    
 C   0.00000000       0.00000000      -53.9051590       0.00000000    
           2

 O   43.3371429       0.00000000       0.00000000      -54.3948822    
 C   0.00000000       0.00000000      -54.3948822       0.00000000    
           2

 O   43.7048035       0.00000000       0.00000000      -54.8846054    
 C   0.00000000       0.00000000      -54.8846054       0.00000000    
           2

 O   44.0724640       0.00000000       0.00000000      -55.3743286    
 C   0.00000000       0.00000000      -55.3743286       0.00000000    
           2

 O   44.4401245       0.00000000       0.00000000      -55.8640518    
 C   0.00000000       0.00000000      -55.8640518       0.00000000    
           2

 O   44.8077850       0.00000000       0.00000000      -56.3537750    
 C   0.00000000       0.00000000      -56.3537750       0.00000000    
           2

 O   45.1754456       0.00000000       0.00000000      -56.8434982    
 C   0.00000000       0.00000000      -56.8434982       0.00000000    
           2

 O   45.5431061       0.00000000       0.00000000      -57.3332214    
 C   0.00000000       0.00000000      -57.3332214       0.00000000    
           2

 O   45.9107666       0.00000000       0.00000000      -57.8229446    
 C   0.00000000       0.00000000      -57.8229446       0.00000000    
           2

 O   46.2784271       0.00000000       0.00000000      -58.3126678    
 C   0.00000000       0.00000000      -58.3126678       0.00000000    
           2

 O   46.6460876       0.00000000       0.00000000      -58.8023911    
 C   0.00000000       0.00000000      -58.8023911       0.00000000    
           2

 O   47.0137482       0.00000000       0.00000000      -59.2921143    
 C   0.00000000       0.00000000      -59.2921143       0.00000000    
           2

 O   47.3814087       0.00000000       0.00000000      -59.7818375    
 C   0.00000000       0.00000000      -59.7818375       0.00000000    
           2

 O   47.7490692       0.00000000       0.00000000      -60.2715607    
 C   0.00000000       0.00000000      -60.2715607       0.00000000    
           2

 O   48.1167297       0.00000000       0.00000000      -60.7612839    
 C   0.00000000       0.00000000      -60.7612839       0.00000000    
           2

 O   48.4843903       0.00000000       0.00000000      -61.2510071    
 C   0.00000000       0.00000000      -61.2510071       0.00000000    
           2

 O   48.8520508       0.00000000       0.00000000      -61.7407303    
 C   0.00000000       0.00000000      -61.7407303       0.00000000    
           2

 O   49.2197113       0.00000000       0.00000000      -62.2304535    
 C   0.00000000       0.00000000      -62.2304535       0.00000000    
           2

 O   49.5873718       0.00000000       0.00000000      -62.7201767    
 C   0.00000000       0.00000000      -62.7201767       0.00000000    
           2

 O   49.9550323       0.00000000       0.00000000      -63.2098999    
 C   0.00000000       0.00000000      -63.2098999       0.00000000    
           2

 O   50.3226929       0.00000000       0.00000000      -63.6996231    
 C   0.00000000       0.00000000      -63.6996231       0.00000000    
           2

 O   50.6903534       0.00000000       0.00000000      -64.1893463    
 C   0.00000000       0.00000000      -64.1893463       0.00000000    
           2

 O   51.0580139       0.00000000       0.00000000      -64.6790695    
 C   0.00000000       0.00000000      -64.6790695       0.00000000    
           2

 O   51.4256744       0.00000000       0.00000000      -65.1687927    
 C   0.00000000       0.00000000      -65.1687927       0.00000000    
           2

 O   51.7933350       0.00000000       0.00000000      -65.6585159    
 C   0.00000000       0.00000000      -65.6585159       0.00000000    
           2

 O   52.1609955       0.00000000       0.00000000      -66.1482391    
 C   0.00000000       0.00000000      -66.1482391       0.00000000    
           2

 O   52.5286560       0.00000000       0.00000000      -66.6379623    
 C   0.00000000       0.00000000      -66.6379623       0.00000000    
           2

 O   52.8963165       0.00000000       0.00000000      -67.1276855    
 C   0.00000000       0.00000000      -67.1276855       0.00000000    
           2

 O   53.2639771       0.00000000       0.00000000      -67.6174088    
 C   0.00000000       0.00000000      -67.6174088       0.00000000    
           2

 O   53.6316376       0.00000000       0.00000000      -68.1071320    
 C   0.00000000       0.00000000      -68.1071320       0.00000000    
           2

 O   53.9992981       0.00000000       0.00000000      -68.5968552    
 C   0.00000000       0.00000000      -68.5968552       0.00000000    
           2

 O   54.3669586       0.00000000       0.00000000      -69.0865784    
 C   0.00000000       0.00000000      -69.0865784       0.00000000    
           2

 O   54.7346191       0.00000000       0.00000000      -69.5763016    
 C   0.00000000       0.00000000      -69.5763016       0.00000000    
           2

 O   55.1022797       0.00000000       0.00000000      -70.0660248    
 C   0.00000000       0.00000000      -70.0660248       0.00000000    
           2

 O   55.4699402       0.00000000       0.00000000      -70.5557480    
 C   0.00000000       0.00000000      -70.5557480       0.00000000    
           2

 O   55.8376007       0.00000000       0.00000000      -71.0454712    
 C   0.00000000       0.00000000      -71.0454712       0.00000000    
           2

 O   56.2052612       0.00000000       0.00000000      -71.5351944    
 C   0.00000000       0.00000000      -71.5351944       0.00000000    
           2

 O   56.5729218       0.00000000       0.00000000      -72.0249176    
 C   0.00000000       0.00000000      -72.0249176       0.00000000    
           2

 O   56.9405823       0.00000000       0.00000000      -72.5146408    
 C   0.00000000       0.00000000      -72.5146408       0.00000000    
           2

 O   57.3082428       0.00000000       0.00000000      -73.0043640    
 C   0.00000000       0.00000000      -73.0043640       0.00000000    
           2

 O   57.6759033       0.00000000       0.00000000      -73.4940872    
 C   0.00000000       0.00000000      -73.4940872       0.00000000    
           2

 O   58.0435638       0.00000000       0.00000000      -73.9838104    
 C   0.00000000       0.00000000      -73.9838104       0.00000000    
           2

 O   58.4112244       0.00000000       0.00000000      -74.4735336    
 C   0.00000000       0.00000000      -74.4735336       0.00000000    
           2

 O   58.7788849       0.00000000       0.00000000      -74.9632568    
 C   0.00000000       0.00000000      -74.9632568       0.00000000    
           2

 O   59.1465454       0.00000000       0.00000000      -75.4529800    
 C   0.00000000       0.00000000      -75.4529800       0.00000000    
           2

 O   59.5142059       0.00000000       0.00000000      -75.9427032    
 C   0.00000000       0.00000000      -75.9427032       0.00000000    
           2

 O   59.8818665       0.00000000       0.00000000      -76.4324265    
 C   0.00000000       0.00000000      -76.4324265       0.00000000    
           2

 O   60.2495270       0.00000000       0.00000000      -76.9221497    
 C   0.00000000       0.00000000      -76.9221497       0.00000000    
           2

 O   60.6171875       0.00000000       0.00000000      -77.4118729    
 C   0.00000000       0.00000000      -77.4118729       0.00000000    
           2

 O   60.9848480       0.00000000       0.00000000      -77.9015961    
 C   0.00000000       0.00000000      -77.9015961       0.00000000    
           2

 O   61.3525085       0.00000000       0.00000000      -78.3913193    
 C   0.00000000       0.00000000      -78.3913193       0.00000000    
           2

 O   61.7201691       0.00000000       0.00000000      -78.8810425    
 C   0.00000000       0.00000000      -78.8810425       0.00000000    
           2

 O   62.0878296       0.00000000       0.00000000      -79.3707657    
 C   0.00000000       0.00000000      -79.3707657       0.00000000    
           2

 O   62.4554901       0.00000000       0.00000000      -79.8604889    
 C   0.00000000       0.00000000      -79.8604889       0.00000000    
           2

 O   62.8231506       0.00000000       0.00000000      -80.3502121    
 C   0.00000000       0.00000000      -80.3502121       0.00000000    
           2

 O   63.1908112       0.00000000       0.00000000      -80.8399353    
 C   0.00000000       0.00000000      -80.8399353       0.00000000    
           2

 O   63.5584717       0.00000000       0.00000000      -81.3296585    
 C   0.00000000       0.00000000      -81.3296585       0.00000000    
           2

 O   63.9261322       0.00000000       0.00000000      -81.8193817    
 C   0.00000000       0.00000000      -81.8193817       0.00000000    
           2

 O   64.2937927       0.00000000       0.00000000      -82.3091049    
 C   0.00000000       0.00000000      -82.3091049       0.00000000    
           2

 O   64.6614532       0.00000000       0.00000000      -82.7988281    
 C   0.00000000       0.00000000      -82.7988281       0.00000000    
           2

 O   65.0291138       0.00000000       0.00000000      -83.2885513    
 C   0.00000000       0.00000000      -83.2885513       0.00000000    
           2

 O   65.3967743       0.00000000       0.00000000      -83.7782745    
 C   0.00000000       0.00000000      -83.7782745       0.00000000    
           2

 O   65.7644348       0.00000000       0.00000000      -84.2679977    
 C   0.00000000       0.00000000      -84.2679977       0.00000000    
           2

 O   66.1320953       0.00000000       0.00000000      -84.7577209    
 C   0.00000000       0.00000000      -84.7577209       0.00000000    
           2

 O   66.4997559       0.00000000       0.00000000      -85.2474442    
 C   0.00000000       0.00000000      -85.2474442       0.00000000    
           2

 O   66.8674164       0.00000000       0.00000000      -85.7371674    
 C   0.00000000       0.00000000      -85.7371674       0.00000000    
           2

 O   67.2350769       0.00000000       0.00000000      -86.2268906    
 C   0.00000000       0.00000000      -86.2268906       0.00000000    
           2

 O   67.6027374       0.00000000       0.00000000      -86.7166138    
 C   0.00000000       0.00000000      -86.7166138       0.00000000    
           2

 O   67.9703979       0.00000000       0.00000000      -87.2063370    
 C   0.00000000       0.00000000      -87.2063370       0.00000000    
           2

 O   68.3380585       0.00000000       0.00000000      -87.6960602    
 C   0.00000000       0.00000000      -87.6960602       0.00000000    
           2

 O   68.7057190       0.00000000       0.00000000      -88.1857834    
 C   0.00000000       0.00000000      -88.1857834       0.00000000    
           2

 O   69.0733795       0.00000000       0.00000000      -88.6755066    
 C   0.00000000       0.00000000      -88.6755066       0.00000000    
           2

 O   69.4410400       0.00000000       0.00000000      -89.1652298    
 C   0.00000000       0.00000000      -89.1652298       0.00000000    
           2

 O   69.8087006       0.00000000       0.00000000      -89.6549530    
 C   0.00000000       0.00000000      -89.6549530       0.00000000    
           2

 O   70.1763611       0.00000000       0.00000000      -90.1446762    
 C   0.00000000       0.00000000      -90.1446762       0.00000000    
           2

 O   70.5440216       0.00000000       0.00000000      -90.6343994    
 C   0.00000000       0.00000000      -90.6343994       0.00000000    
           2

 O   70.9116821       0.00000000       0.00000000      -91.1241226    
 C   0.00000000       0.00000000      -91.1241226       0.00000000    
           2

 O   71.2793427       0.00000000       0.00000000      -91.6138458    
 C   0.00000000       0.00000000      -91.6138458       0.00000000    
           2

 O   71.6470032       0.00000000       0.00000000      -92.1035690    
 C   0.00000000       0.00000000      -92.1035690       0.00000000    
           2

 O   72.0146637       0.00000000       0.00000000      -92.5932922    
 C   0.00000000       0.00000000      -92.5932922       0.00000000    
           2

 O   72.3823242       0.00000000       0.00000000      -93.0830154    
 C   0.00000000       0.00000000      -93.0830154       0.00000000    
           2

 O   72.7499847       0.00000000       0.00000000      -93.5727386    
 C   0.00000000       0.00000000      -93.5727386       0.00000000    
           2

 O   73.1176453       0.00000000       0.00000000      -94.0624619    
 C   0.00000000       0.00000000      -94.0624619       0.00000000    
           2

 O   73.4853058       0.00000000       0.00000000      -94.5521851    
 C   0.00000000       0.00000000      -94.5521851       0.00000000    
           2

 O   73.8529663       0.00000000       0.00000000      -95.0419083    
 C   0.00000000       0.00000000      -95.0419083       0.00000000    
           2

 O   74.2206268       0.00000000       0.00000000      -95.5316315    
 C   0.00000000       0.00000000      -95.5316315       0.00000000    
           2

 O   74.5882874       0.00000000       0.00000000      -96.0213547    
 C   0.00000000       0.00000000      -96.0213547       0.00000000    
           2

 O   74.9559479       0.00000000       0.00000000      -96.5110779    
 C   0.00000000       0.00000000      -96.5110779       0.00000000    
           2

 O   75.3236084       0.00000000       0.00000000      -97.0008011    
 C   0.00000000       0.00000000      -97.0008011       0.00000000    
           2

 O   75.6912689       0.00000000       0.00000000      -97.4905243    
 C   0.00000000       0.00000000      -97.4905243       0.00000000    
           2

 O   76.0589294       0.00000000       0.00000000      -97.9802475    
 C   0.00000000       0.00000000      -97.9802475       0.00000000    
           2

 O   76.4265900       0.00000000       0.00000000      -98.4699707    
 C   0.00000000       0.00000000      -98.4699707       0.00000000    
           2

 O   76.7942505       0.00000000       0.00000000      -98.9596939    
 C   0.00000000       0.00000000      -98.9596939       0.00000000    
           2

 O   77.1619110       0.00000000       0.00000000      -99.4494171    
 C   0.00000000       0.00000000      -99.4494171       0.00000000    
           2

 O   77.5295715       0.00000000       0.00000000      -99.9391403    
 C   0.00000000       0.00000000      -99.9391403       0.00000000    
           2

 O   77.8972321       0.00000000       0.00000000      -100.428864    
 C   0.00000000       0.00000000      -100.428864       0.00000000    
           2

 O   78.2648926       0.00000000       0.00000000      -100.918587    
 C   0.00000000       0.00000000      -100.918587       0.00000000    
           2

 O   78.6325531       0.00000000       0.00000000      -101.408310    
 C   0.00000000       0.00000000      -101.408310       0.00000000    
           2

 O   79.0002136       0.00000000       0.00000000      -101.898033    
 C   0.00000000       0.00000000      -101.898033       0.00000000    
           2

 O   79.3678741       0.00000000       0.00000000      -102.387756    
 C   0.00000000       0.00000000      -102.387756       0.00000000    
           2

 O   79.7355347       0.00000000       0.00000000      -102.877480    
 C   0.00000000       0.00000000      -102.877480       0.00000000    
           2

 O   80.1031952       0.00000000       0.00000000      -103.367203    
 C   0.00000000       0.00000000      -103.367203       0.00000000    
           2

 O   80.4708557       0.00000000       0.00000000      -103.856926    
 C   0.00000000       0.00000000      -103.856926       0.00000000    
           2

 O   80.8385162       0.00000000       0.00000000      -104.346649    
 C   0.00000000       0.00000000      -104.346649       0.00000000    
           2

 O   81.2061768       0.00000000       0.00000000      -104.836372    
 C   0.00000000       0.00000000      -104.836372       0.00000000    
           2

 O   81.5738373       0.00000000       0.00000000      -105.326096    
 C   0.00000000       0.00000000      -105.326096       0.00000000    
