           2

 O   2.75995302       0.00000000       0.00000000      -547.536316    
 C   0.00000000       0.00000000      -547.536316       0.00000000    
           2

 O   3.01990604       0.00000000       0.00000000      -547.882568    
 C   0.00000000       0.00000000      -547.882568       0.00000000    
           2

 O   3.27985907       0.00000000       0.00000000      -548.228821    
 C   0.00000000       0.00000000      -548.228821       0.00000000    
           2

 O   3.53981209       0.00000000       0.00000000      -548.575073    
 C   0.00000000       0.00000000      -548.575073       0.00000000    
           2

 O   3.79976511       0.00000000       0.00000000      -548.921326    
 C   0.00000000       0.00000000      -548.921326       0.00000000    
           2

 O   4.05971813       0.00000000       0.00000000      -549.267578    
 C   0.00000000       0.00000000      -549.267578       0.00000000    
           2

 O   4.31967115       0.00000000       0.00000000      -549.613831    
 C   0.00000000       0.00000000      -549.613831       0.00000000    
           2

 O   4.57962418       0.00000000       0.00000000      -549.960083    
 C   0.00000000       0.00000000      -549.960083       0.00000000    
           2

 O   4.83957720       0.00000000       0.00000000      -550.306335    
 C   0.00000000       0.00000000      -550.306335       0.00000000    
           2

 O   5.09953022       0.00000000       0.00000000      -550.652588    
 C   0.00000000       0.00000000      -550.652588       0.00000000    
           2

 O   5.35948324       0.00000000       0.00000000      -550.998840    
 C   0.00000000       0.00000000      -550.998840       0.00000000    
           2

 O   5.61943626       0.00000000       0.00000000      -551.345093    
 C   0.00000000       0.00000000      -551.345093       0.00000000    
           2

 O   5.87938929       0.00000000       0.00000000      -551.691345    
 C   0.00000000       0.00000000      -551.691345       0.00000000    
           2

 O   6.13934231       0.00000000       0.00000000      -552.037598    
 C   0.00000000       0.00000000      -552.037598       0.00000000    
           2

 O   6.39929533       0.00000000       0.00000000      -552.383850    
 C   0.00000000       0.00000000      -552.383850       0.00000000    
           2

 O   6.65924835       0.00000000       0.00000000      -552.730103    
 C   0.00000000       0.00000000      -552.730103       0.00000000    
           2

 O   6.91920137       0.00000000       0.00000000      -553.076355    
 C   0.00000000       0.00000000      -553.076355       0.00000000    
           2

 O   7.17915440       0.00000000       0.00000000      -553.422607    
 C   0.00000000       0.00000000      -553.422607       0.00000000    
           2

 O   7.43910742       0.00000000       0.00000000      -553.768860    
 C   0.00000000       0.00000000      -553.768860       0.00000000    
           2

 O   7.69906044       0.00000000       0.00000000      -554.115112    
 C   0.00000000       0.00000000      -554.115112       0.00000000    
           2

 O   7.95901346       0.00000000       0.00000000      -554.461365    
 C   0.00000000       0.00000000      -554.461365       0.00000000    
           2

 O   8.21896648       0.00000000       0.00000000      -554.807617    
 C   0.00000000       0.00000000      -554.807617       0.00000000    
           2

 O   8.47891903       0.00000000       0.00000000      -555.153870    
 C   0.00000000       0.00000000      -555.153870       0.00000000    
           2

 O   8.73887157       0.00000000       0.00000000      -555.500122    
 C   0.00000000       0.00000000      -555.500122       0.00000000    
           2

 O   8.99882412       0.00000000       0.00000000      -555.846375    
 C   0.00000000       0.00000000      -555.846375       0.00000000    
           2

 O   9.25877666       0.00000000       0.00000000      -556.192627    
 C   0.00000000       0.00000000      -556.192627       0.00000000    
           2

 O   9.51872921       0.00000000       0.00000000      -556.538879    
 C   0.00000000       0.00000000      -556.538879       0.00000000    
           2

 O   9.77868176       0.00000000       0.00000000      -556.885132    
 C   0.00000000       0.00000000      -556.885132       0.00000000    
           2

 O   10.0386343       0.00000000       0.00000000      -557.231384    
 C   0.00000000       0.00000000      -557.231384       0.00000000    
           2

 O   10.2985868       0.00000000       0.00000000      -557.577637    
 C   0.00000000       0.00000000      -557.577637       0.00000000    
           2

 O   10.5585394       0.00000000       0.00000000      -557.923889    
 C   0.00000000       0.00000000      -557.923889       0.00000000    
           2

 O   10.8184919       0.00000000       0.00000000      -558.270142    
 C   0.00000000       0.00000000      -558.270142       0.00000000    
           2

 O   11.0784445       0.00000000       0.00000000      -558.616394    
 C   0.00000000       0.00000000      -558.616394       0.00000000    
           2

 O   11.3383970       0.00000000       0.00000000      -558.962646    
 C   0.00000000       0.00000000      -558.962646       0.00000000    
           2

 O   11.5983496       0.00000000       0.00000000      -559.308899    
 C   0.00000000       0.00000000      -559.308899       0.00000000    
           2

 O   11.8583021       0.00000000       0.00000000      -559.655151    
 C   0.00000000       0.00000000      -559.655151       0.00000000    
           2

 O   12.1182547       0.00000000       0.00000000      -560.001404    
 C   0.00000000       0.00000000      -560.001404       0.00000000    
           2

 O   12.3782072       0.00000000       0.00000000      -560.347656    
 C   0.00000000       0.00000000      -560.347656       0.00000000    
           2

 O   12.6381598       0.00000000       0.00000000      -560.693909    
 C   0.00000000       0.00000000      -560.693909       0.00000000    
           2

 O   12.8981123       0.00000000       0.00000000      -561.040161    
 C   0.00000000       0.00000000      -561.040161       0.00000000    
           2

 O   13.1580648       0.00000000       0.00000000      -561.386414    
 C   0.00000000       0.00000000      -561.386414       0.00000000    
           2

 O   13.4180174       0.00000000       0.00000000      -561.732666    
 C   0.00000000       0.00000000      -561.732666       0.00000000    
           2

 O   13.6779699       0.00000000       0.00000000      -562.078918    
 C   0.00000000       0.00000000      -562.078918       0.00000000    
           2

 O   13.9379225       0.00000000       0.00000000      -562.425171    
 C   0.00000000       0.00000000      -562.425171       0.00000000    
           2

 O   14.1978750       0.00000000       0.00000000      -562.771423    
 C   0.00000000       0.00000000      -562.771423       0.00000000    
           2

 O   14.4578276       0.00000000       0.00000000      -563.117676    
 C   0.00000000       0.00000000      -563.117676       0.00000000    
           2

 O   14.7177801       0.00000000       0.00000000      -563.463928    
 C   0.00000000       0.00000000      -563.463928       0.00000000    
           2

 O   14.9777327       0.00000000       0.00000000      -563.810181    
 C   0.00000000       0.00000000      -563.810181       0.00000000    
           2

 O   15.2376852       0.00000000       0.00000000      -564.156433    
 C   0.00000000       0.00000000      -564.156433       0.00000000    
           2

 O   15.4976377       0.00000000       0.00000000      -564.502686    
 C   0.00000000       0.00000000      -564.502686       0.00000000    
           2

 O   15.7575903       0.00000000       0.00000000      -564.848938    
 C   0.00000000       0.00000000      -564.848938       0.00000000    
           2

 O   16.0175438       0.00000000       0.00000000      -565.195190    
 C   0.00000000       0.00000000      -565.195190       0.00000000    
           2

 O   16.2774963       0.00000000       0.00000000      -565.541443    
 C   0.00000000       0.00000000      -565.541443       0.00000000    
           2

 O   16.5374489       0.00000000       0.00000000      -565.887695    
 C   0.00000000       0.00000000      -565.887695       0.00000000    
           2

 O   16.7974014       0.00000000       0.00000000      -566.233948    
 C   0.00000000       0.00000000      -566.233948       0.00000000    
           2

 O   17.0573540       0.00000000       0.00000000      -566.580200    
 C   0.00000000       0.00000000      -566.580200       0.00000000    
           2

 O   17.3173065       0.00000000       0.00000000      -566.926453    
 C   0.00000000       0.00000000      -566.926453       0.00000000    
           2

 O   17.5772591       0.00000000       0.00000000      -567.272705    
 C   0.00000000       0.00000000      -567.272705       0.00000000    
           2

 O   17.8372116       0.00000000       0.00000000      -567.618958    
 C   0.00000000       0.00000000      -567.618958       0.00000000    
           2

 O   18.0971642       0.00000000       0.00000000      -567.965210    
 C   0.00000000       0.00000000      -567.965210       0.00000000    
           2

 O   18.3571167       0.00000000       0.00000000      -568.311462    
 C   0.00000000       0.00000000      -568.311462       0.00000000    
           2

 O   18.6170692       0.00000000       0.00000000      -568.657715    
 C   0.00000000       0.00000000      -568.657715       0.00000000    
           2

 O   18.8770218       0.00000000       0.00000000      -569.003967    
 C   0.00000000       0.00000000      -569.003967       0.00000000    
           2

 O   19.1369743       0.00000000       0.00000000      -569.350220    
 C   0.00000000       0.00000000      -569.350220       0.00000000    
           2

 O   19.3969269       0.00000000       0.00000000      -569.696472    
 C   0.00000000       0.00000000      -569.696472       0.00000000    
           2

 O   19.6568794       0.00000000       0.00000000      -570.042725    
 C   0.00000000       0.00000000      -570.042725       0.00000000    
           2

 O   19.9168320       0.00000000       0.00000000      -570.388977    
 C   0.00000000       0.00000000      -570.388977       0.00000000    
           2

 O   20.1767845       0.00000000       0.00000000      -570.735229    
 C   0.00000000       0.00000000      -570.735229       0.00000000    
           2

 O   20.4367371       0.00000000       0.00000000      -571.081482    
 C   0.00000000       0.00000000      -571.081482       0.00000000    
           2

 O   20.6966896       0.00000000       0.00000000      -571.427734    
 C   0.00000000       0.00000000      -571.427734       0.00000000    
           2

 O   20.9566422       0.00000000       0.00000000      -571.773987    
 C   0.00000000       0.00000000      -571.773987       0.00000000    
           2

 O   21.2165947       0.00000000       0.00000000      -572.120239    
 C   0.00000000       0.00000000      -572.120239       0.00000000    
           2

 O   21.4765472       0.00000000       0.00000000      -572.466492    
 C   0.00000000       0.00000000      -572.466492       0.00000000    
           2

 O   21.7364998       0.00000000       0.00000000      -572.812744    
 C   0.00000000       0.00000000      -572.812744       0.00000000    
           2

 O   21.9964523       0.00000000       0.00000000      -573.158997    
 C   0.00000000       0.00000000      -573.158997       0.00000000    
           2

 O   22.2564049       0.00000000       0.00000000      -573.505249    
 C   0.00000000       0.00000000      -573.505249       0.00000000    
           2

 O   22.5163574       0.00000000       0.00000000      -573.851501    
 C   0.00000000       0.00000000      -573.851501       0.00000000    
           2

 O   22.7763100       0.00000000       0.00000000      -574.197754    
 C   0.00000000       0.00000000      -574.197754       0.00000000    
           2

 O   23.0362625       0.00000000       0.00000000      -574.544006    
 C   0.00000000       0.00000000      -574.544006       0.00000000    
           2

 O   23.2962151       0.00000000       0.00000000      -574.890259    
 C   0.00000000       0.00000000      -574.890259       0.00000000    
           2

 O   23.5561676       0.00000000       0.00000000      -575.236511    
 C   0.00000000       0.00000000      -575.236511       0.00000000    
           2

 O   23.8161201       0.00000000       0.00000000      -575.582764    
 C   0.00000000       0.00000000      -575.582764       0.00000000    
           2

 O   24.0760727       0.00000000       0.00000000      -575.929016    
 C   0.00000000       0.00000000      -575.929016       0.00000000    
           2

 O   24.3360252       0.00000000       0.00000000      -576.275269    
 C   0.00000000       0.00000000      -576.275269       0.00000000    
           2

 O   24.5959778       0.00000000       0.00000000      -576.621521    
 C   0.00000000       0.00000000      -576.621521       0.00000000    
           2

 O   24.8559303       0.00000000       0.00000000      -576.967773    
 C   0.00000000       0.00000000      -576.967773       0.00000000    
           2

 O   25.1158829       0.00000000       0.00000000      -577.314026    
 C   0.00000000       0.00000000      -577.314026       0.00000000    
           2

 O   25.3758354       0.00000000       0.00000000      -577.660278    
 C   0.00000000       0.00000000      -577.660278       0.00000000    
           2

 O   25.6357880       0.00000000       0.00000000      -578.006531    
 C   0.00000000       0.00000000      -578.006531       0.00000000    
           2

 O   25.8957405       0.00000000       0.00000000      -578.352783    
 C   0.00000000       0.00000000      -578.352783       0.00000000    
           2

 O   26.1556931       0.00000000       0.00000000      -578.699036    
 C   0.00000000       0.00000000      -578.699036       0.00000000    
           2

 O   26.4156456       0.00000000       0.00000000      -579.045288    
 C   0.00000000       0.00000000      -579.045288       0.00000000    
           2

 O   26.6755981       0.00000000       0.00000000      -579.391541    
 C   0.00000000       0.00000000      -579.391541       0.00000000    
           2

 O   26.9355507       0.00000000       0.00000000      -579.737793    
 C   0.00000000       0.00000000      -579.737793       0.00000000    
           2

 O   27.1955032       0.00000000       0.00000000      -580.084045    
 C   0.00000000       0.00000000      -580.084045       0.00000000    
           2

 O   27.4554558       0.00000000       0.00000000      -580.430298    
 C   0.00000000       0.00000000      -580.430298       0.00000000    
           2

 O   27.7154083       0.00000000       0.00000000      -580.776550    
 C   0.00000000       0.00000000      -580.776550       0.00000000    
           2

 O   27.9753609       0.00000000       0.00000000      -581.122803    
 C   0.00000000       0.00000000      -581.122803       0.00000000    
           2

 O   28.2353134       0.00000000       0.00000000      -581.469055    
 C   0.00000000       0.00000000      -581.469055       0.00000000    
           2

 O   28.4952660       0.00000000       0.00000000      -581.815308    
 C   0.00000000       0.00000000      -581.815308       0.00000000    
