           2

 O   2.96877050       0.00000000       0.00000000      0.194328055    
 C   0.00000000       0.00000000      0.194328055       0.00000000    
           2

 O   2.92316985       0.00000000       0.00000000      0.255067885    
 C   0.00000000       0.00000000      0.255067885       0.00000000    
           2

 O   2.86413860       0.00000000       0.00000000      0.333697140    
 C   0.00000000       0.00000000      0.333697140       0.00000000    
           2

 O   2.79415107       0.00000000       0.00000000      0.426919907    
 C   0.00000000       0.00000000      0.426919907       0.00000000    
           2

 O   2.71882868       0.00000000       0.00000000      0.527248681    
 C   0.00000000       0.00000000      0.527248681       0.00000000    
           2

 O   2.64919424       0.00000000       0.00000000      0.620001256    
 C   0.00000000       0.00000000      0.620001256       0.00000000    
           2

 O   2.60244989       0.00000000       0.00000000      0.682264328    
 C   0.00000000       0.00000000      0.682264328       0.00000000    
           2

 O   2.59557676       0.00000000       0.00000000      0.691419065    
 C   0.00000000       0.00000000      0.691419065       0.00000000    
           2

 O   2.63153315       0.00000000       0.00000000      0.643525124    
 C   0.00000000       0.00000000      0.643525124       0.00000000    
           2

 O   2.69619489       0.00000000       0.00000000      0.557395995    
 C   0.00000000       0.00000000      0.557395995       0.00000000    
           2

 O   2.77125216       0.00000000       0.00000000      0.457420200    
 C   0.00000000       0.00000000      0.457420200       0.00000000    
           2

 O   2.84367561       0.00000000       0.00000000      0.360952497    
 C   0.00000000       0.00000000      0.360952497       0.00000000    
           2

 O   2.90643334       0.00000000       0.00000000      0.277359366    
 C   0.00000000       0.00000000      0.277359366       0.00000000    
           2

 O   2.95629787       0.00000000       0.00000000      0.210939914    
 C   0.00000000       0.00000000      0.210939914       0.00000000    
           2

 O   2.99198079       0.00000000       0.00000000      0.163410544    
 C   0.00000000       0.00000000      0.163410544       0.00000000    
           2

 O   3.01305580       0.00000000       0.00000000      0.135338604    
 C   0.00000000       0.00000000      0.135338604       0.00000000    
           2

 O   3.01942253       0.00000000       0.00000000      0.126858056    
 C   0.00000000       0.00000000      0.126858056       0.00000000    
           2

 O   3.01106954       0.00000000       0.00000000      0.137984216    
 C   0.00000000       0.00000000      0.137984216       0.00000000    
           2

 O   2.98801351       0.00000000       0.00000000      0.168694705    
 C   0.00000000       0.00000000      0.168694705       0.00000000    
           2

 O   2.95038009       0.00000000       0.00000000      0.218821973    
 C   0.00000000       0.00000000      0.218821973       0.00000000    
           2

 O   2.89867163       0.00000000       0.00000000      0.287697285    
 C   0.00000000       0.00000000      0.287697285       0.00000000    
           2

 O   2.83435988       0.00000000       0.00000000      0.373359978    
 C   0.00000000       0.00000000      0.373359978       0.00000000    
           2

 O   2.76105857       0.00000000       0.00000000      0.470996708    
 C   0.00000000       0.00000000      0.470996708       0.00000000    
           2

 O   2.68649340       0.00000000       0.00000000      0.570317030    
 C   0.00000000       0.00000000      0.570317030       0.00000000    
           2

 O   2.62458324       0.00000000       0.00000000      0.652780890    
 C   0.00000000       0.00000000      0.652780890       0.00000000    
           2

 O   2.59385824       0.00000000       0.00000000      0.693706453    
 C   0.00000000       0.00000000      0.693706453       0.00000000    
           2

 O   2.60672235       0.00000000       0.00000000      0.676571310    
 C   0.00000000       0.00000000      0.676571310       0.00000000    
           2

 O   2.65768313       0.00000000       0.00000000      0.608691931    
 C   0.00000000       0.00000000      0.608691931       0.00000000    
           2

 O   2.72897220       0.00000000       0.00000000      0.513735235    
 C   0.00000000       0.00000000      0.513735235       0.00000000    
           2

 O   2.80407524       0.00000000       0.00000000      0.413698226    
 C   0.00000000       0.00000000      0.413698226       0.00000000    
           2

 O   2.87282085       0.00000000       0.00000000      0.322129250    
 C   0.00000000       0.00000000      0.322129250       0.00000000    
           2

 O   2.93013740       0.00000000       0.00000000      0.245783851    
 C   0.00000000       0.00000000      0.245783851       0.00000000    
           2

 O   2.97383261       0.00000000       0.00000000      0.187581897    
 C   0.00000000       0.00000000      0.187581897       0.00000000    
           2

 O   3.00309277       0.00000000       0.00000000      0.148607448    
 C   0.00000000       0.00000000      0.148607448       0.00000000    
           2

 O   3.01767969       0.00000000       0.00000000      0.129177645    
 C   0.00000000       0.00000000      0.129177645       0.00000000    
           2

 O   3.01754904       0.00000000       0.00000000      0.129351452    
 C   0.00000000       0.00000000      0.129351452       0.00000000    
           2

 O   3.00270128       0.00000000       0.00000000      0.149128601    
 C   0.00000000       0.00000000      0.149128601       0.00000000    
           2

 O   2.97318196       0.00000000       0.00000000      0.188447967    
 C   0.00000000       0.00000000      0.188447967       0.00000000    
           2

 O   2.92923546       0.00000000       0.00000000      0.246984452    
 C   0.00000000       0.00000000      0.246984452       0.00000000    
           2

 O   2.87169123       0.00000000       0.00000000      0.323632896    
 C   0.00000000       0.00000000      0.323632896       0.00000000    
           2

 O   2.80277705       0.00000000       0.00000000      0.415426135    
 C   0.00000000       0.00000000      0.415426135       0.00000000    
           2

 O   2.72763419       0.00000000       0.00000000      0.515515685    
 C   0.00000000       0.00000000      0.515515685       0.00000000    
           2

 O   2.65654469       0.00000000       0.00000000      0.610206485    
 C   0.00000000       0.00000000      0.610206485       0.00000000    
           2

 O   2.60611844       0.00000000       0.00000000      0.677373886    
 C   0.00000000       0.00000000      0.677373886       0.00000000    
           2

 O   2.59403610       0.00000000       0.00000000      0.693467259    
 C   0.00000000       0.00000000      0.693467259       0.00000000    
           2

 O   2.62546372       0.00000000       0.00000000      0.651605844    
 C   0.00000000       0.00000000      0.651605844       0.00000000    
           2

 O   2.68775558       0.00000000       0.00000000      0.568633437    
 C   0.00000000       0.00000000      0.568633437       0.00000000    
           2

 O   2.76239944       0.00000000       0.00000000      0.469208062    
 C   0.00000000       0.00000000      0.469208062       0.00000000    
           2

 O   2.83559275       0.00000000       0.00000000      0.371714890    
 C   0.00000000       0.00000000      0.371714890       0.00000000    
           2

 O   2.89970350       0.00000000       0.00000000      0.286319554    
 C   0.00000000       0.00000000      0.286319554       0.00000000    
           2

 O   2.95117092       0.00000000       0.00000000      0.217765123    
 C   0.00000000       0.00000000      0.217765123       0.00000000    
           2

 O   2.98854828       0.00000000       0.00000000      0.167978644    
 C   0.00000000       0.00000000      0.167978644       0.00000000    
           2

 O   3.01134396       0.00000000       0.00000000      0.137614727    
 C   0.00000000       0.00000000      0.137614727       0.00000000    
           2

 O   3.01943588       0.00000000       0.00000000      0.126836196    
 C   0.00000000       0.00000000      0.126836196       0.00000000    
           2

 O   3.01280808       0.00000000       0.00000000      0.135664403    
 C   0.00000000       0.00000000      0.135664403       0.00000000    
           2

 O   2.99147248       0.00000000       0.00000000      0.164083183    
 C   0.00000000       0.00000000      0.164083183       0.00000000    
           2

 O   2.95553279       0.00000000       0.00000000      0.211954489    
 C   0.00000000       0.00000000      0.211954489       0.00000000    
           2

 O   2.90542436       0.00000000       0.00000000      0.278698385    
 C   0.00000000       0.00000000      0.278698385       0.00000000    
           2

 O   2.84245896       0.00000000       0.00000000      0.362567842    
 C   0.00000000       0.00000000      0.362567842       0.00000000    
           2

 O   2.76991272       0.00000000       0.00000000      0.459198862    
 C   0.00000000       0.00000000      0.459198862       0.00000000    
           2

 O   2.69490623       0.00000000       0.00000000      0.559106827    
 C   0.00000000       0.00000000      0.559106827       0.00000000    
           2

 O   2.63058615       0.00000000       0.00000000      0.644780636    
 C   0.00000000       0.00000000      0.644780636       0.00000000    
           2

 O   2.59530187       0.00000000       0.00000000      0.691779077    
 C   0.00000000       0.00000000      0.691779077       0.00000000    
           2

 O   2.60296679       0.00000000       0.00000000      0.681569219    
 C   0.00000000       0.00000000      0.681569219       0.00000000    
           2

 O   2.65028477       0.00000000       0.00000000      0.618542016    
 C   0.00000000       0.00000000      0.618542016       0.00000000    
           2

 O   2.72015452       0.00000000       0.00000000      0.525475740    
 C   0.00000000       0.00000000      0.525475740       0.00000000    
           2

 O   2.79545879       0.00000000       0.00000000      0.425170809    
 C   0.00000000       0.00000000      0.425170809       0.00000000    
           2

 O   2.86528826       0.00000000       0.00000000      0.332158267    
 C   0.00000000       0.00000000      0.332158267       0.00000000    
           2

 O   2.92409635       0.00000000       0.00000000      0.253826112    
 C   0.00000000       0.00000000      0.253826112       0.00000000    
           2

 O   2.96944737       0.00000000       0.00000000      0.193418711    
 C   0.00000000       0.00000000      0.193418711       0.00000000    
           2

 O   3.00041819       0.00000000       0.00000000      0.152165666    
 C   0.00000000       0.00000000      0.152165666       0.00000000    
           2

 O   3.01672888       0.00000000       0.00000000      0.130439773    
 C   0.00000000       0.00000000      0.130439773       0.00000000    
           2

 O   3.01832366       0.00000000       0.00000000      0.128315449    
 C   0.00000000       0.00000000      0.128315449       0.00000000    
           2

 O   3.00519991       0.00000000       0.00000000      0.145795986    
 C   0.00000000       0.00000000      0.145795986       0.00000000    
           2

 O   2.97739387       0.00000000       0.00000000      0.182833463    
 C   0.00000000       0.00000000      0.182833463       0.00000000    
           2

 O   2.93511200       0.00000000       0.00000000      0.239152700    
 C   0.00000000       0.00000000      0.239152700       0.00000000    
           2

 O   2.87908387       0.00000000       0.00000000      0.313781887    
 C   0.00000000       0.00000000      0.313781887       0.00000000    
           2

 O   2.81131077       0.00000000       0.00000000      0.404055178    
 C   0.00000000       0.00000000      0.404055178       0.00000000    
           2

 O   2.73648667       0.00000000       0.00000000      0.503720343    
 C   0.00000000       0.00000000      0.503720343       0.00000000    
           2

 O   2.66417527       0.00000000       0.00000000      0.600038528    
 C   0.00000000       0.00000000      0.600038528       0.00000000    
           2

 O   2.61032891       0.00000000       0.00000000      0.671761453    
 C   0.00000000       0.00000000      0.671761453       0.00000000    
           2

 O   2.59311748       0.00000000       0.00000000      0.694686890    
 C   0.00000000       0.00000000      0.694686890       0.00000000    
           2

 O   2.61982441       0.00000000       0.00000000      0.659113407    
 C   0.00000000       0.00000000      0.659113407       0.00000000    
           2

 O   2.67947960       0.00000000       0.00000000      0.579653144    
 C   0.00000000       0.00000000      0.579653144       0.00000000    
           2

 O   2.75352025       0.00000000       0.00000000      0.481031299    
 C   0.00000000       0.00000000      0.481031299       0.00000000    
           2

 O   2.82738137       0.00000000       0.00000000      0.382648647    
 C   0.00000000       0.00000000      0.382648647       0.00000000    
           2

 O   2.89279842       0.00000000       0.00000000      0.295513511    
 C   0.00000000       0.00000000      0.295513511       0.00000000    
           2

 O   2.94584990       0.00000000       0.00000000      0.224849135    
 C   0.00000000       0.00000000      0.224849135       0.00000000    
           2

 O   2.98491549       0.00000000       0.00000000      0.172813922    
 C   0.00000000       0.00000000      0.172813922       0.00000000    
           2

 O   3.00943041       0.00000000       0.00000000      0.140160143    
 C   0.00000000       0.00000000      0.140160143       0.00000000    
           2

 O   3.01924729       0.00000000       0.00000000      0.127084047    
 C   0.00000000       0.00000000      0.127084047       0.00000000    
           2

 O   3.01434445       0.00000000       0.00000000      0.133614391    
 C   0.00000000       0.00000000      0.133614391       0.00000000    
           2

 O   2.99473047       0.00000000       0.00000000      0.159740120    
 C   0.00000000       0.00000000      0.159740120       0.00000000    
           2

 O   2.96048975       0.00000000       0.00000000      0.205348492    
 C   0.00000000       0.00000000      0.205348492       0.00000000    
           2

 O   2.91199827       0.00000000       0.00000000      0.269938767    
 C   0.00000000       0.00000000      0.269938767       0.00000000    
           2

 O   2.85042191       0.00000000       0.00000000      0.351958096    
 C   0.00000000       0.00000000      0.351958096       0.00000000    
           2

 O   2.77872562       0.00000000       0.00000000      0.447457075    
 C   0.00000000       0.00000000      0.447457075       0.00000000    
           2

 O   2.70345831       0.00000000       0.00000000      0.547712505    
 C   0.00000000       0.00000000      0.547712505       0.00000000    
           2

 O   2.63699174       0.00000000       0.00000000      0.636245489    
 C   0.00000000       0.00000000      0.636245489       0.00000000    
           2

 O   2.59735894       0.00000000       0.00000000      0.689036131    
 C   0.00000000       0.00000000      0.689036131       0.00000000    
           2

 O   2.59977436       0.00000000       0.00000000      0.685818732    
 C   0.00000000       0.00000000      0.685818732       0.00000000    
           2

 O   2.64319563       0.00000000       0.00000000      0.627981961    
 C   0.00000000       0.00000000      0.627981961       0.00000000    
           2

 O   2.71140504       0.00000000       0.00000000      0.537127376    
 C   0.00000000       0.00000000      0.537127376       0.00000000    
           2

 O   2.78676271       0.00000000       0.00000000      0.436751515    
 C   0.00000000       0.00000000      0.436751515       0.00000000    
           2

 O   2.85760260       0.00000000       0.00000000      0.342393249    
 C   0.00000000       0.00000000      0.342393249       0.00000000    
           2

 O   2.91787052       0.00000000       0.00000000      0.262116671    
 C   0.00000000       0.00000000      0.262116671       0.00000000    
           2

 O   2.96486545       0.00000000       0.00000000      0.199519649    
 C   0.00000000       0.00000000      0.199519649       0.00000000    
           2

 O   2.99754333       0.00000000       0.00000000      0.155992717    
 C   0.00000000       0.00000000      0.155992717       0.00000000    
           2

 O   3.01557708       0.00000000       0.00000000      0.131971702    
 C   0.00000000       0.00000000      0.131971702       0.00000000    
           2

 O   3.01889706       0.00000000       0.00000000      0.127549469    
 C   0.00000000       0.00000000      0.127549469       0.00000000    
           2

 O   3.00749779       0.00000000       0.00000000      0.142733097    
 C   0.00000000       0.00000000      0.142733097       0.00000000    
           2

 O   2.98140717       0.00000000       0.00000000      0.177485585    
 C   0.00000000       0.00000000      0.177485585       0.00000000    
           2

 O   2.94079876       0.00000000       0.00000000      0.231575489    
 C   0.00000000       0.00000000      0.231575489       0.00000000    
           2

 O   2.88631225       0.00000000       0.00000000      0.304151088    
 C   0.00000000       0.00000000      0.304151088       0.00000000    
           2

 O   2.81974196       0.00000000       0.00000000      0.392822146    
 C   0.00000000       0.00000000      0.392822146       0.00000000    
           2

 O   2.74536538       0.00000000       0.00000000      0.491891325    
 C   0.00000000       0.00000000      0.491891325       0.00000000    
           2

 O   2.67205501       0.00000000       0.00000000      0.589540243    
 C   0.00000000       0.00000000      0.589540243       0.00000000    
           2

 O   2.61505580       0.00000000       0.00000000      0.665462792    
 C   0.00000000       0.00000000      0.665462792       0.00000000    
           2

 O   2.59282756       0.00000000       0.00000000      0.695070624    
 C   0.00000000       0.00000000      0.695070624       0.00000000    
           2

 O   2.61464691       0.00000000       0.00000000      0.666007459    
 C   0.00000000       0.00000000      0.666007459       0.00000000    
           2

 O   2.67139626       0.00000000       0.00000000      0.590417802    
 C   0.00000000       0.00000000      0.590417802       0.00000000    
           2

 O   2.74463224       0.00000000       0.00000000      0.492867708    
 C   0.00000000       0.00000000      0.492867708       0.00000000    
           2

 O   2.81905031       0.00000000       0.00000000      0.393743157    
 C   0.00000000       0.00000000      0.393743157       0.00000000    
           2

 O   2.88572192       0.00000000       0.00000000      0.304936945    
 C   0.00000000       0.00000000      0.304936945       0.00000000    
           2

 O   2.94033647       0.00000000       0.00000000      0.232190669    
 C   0.00000000       0.00000000      0.232190669       0.00000000    
           2

 O   2.98108315       0.00000000       0.00000000      0.177916393    
 C   0.00000000       0.00000000      0.177916393       0.00000000    
           2

 O   3.00731540       0.00000000       0.00000000      0.142975256    
 C   0.00000000       0.00000000      0.142975256       0.00000000    
           2

 O   3.01885676       0.00000000       0.00000000      0.127602085    
 C   0.00000000       0.00000000      0.127602085       0.00000000    
           2

 O   3.01567912       0.00000000       0.00000000      0.131834716    
 C   0.00000000       0.00000000      0.131834716       0.00000000    
           2

 O   2.99778724       0.00000000       0.00000000      0.155666381    
 C   0.00000000       0.00000000      0.155666381       0.00000000    
           2

 O   2.96524978       0.00000000       0.00000000      0.199005872    
 C   0.00000000       0.00000000      0.199005872       0.00000000    
           2

 O   2.91838980       0.00000000       0.00000000      0.261422843    
 C   0.00000000       0.00000000      0.261422843       0.00000000    
           2

 O   2.85824084       0.00000000       0.00000000      0.341540664    
 C   0.00000000       0.00000000      0.341540664       0.00000000    
           2

 O   2.78748131       0.00000000       0.00000000      0.435791701    
 C   0.00000000       0.00000000      0.435791701       0.00000000    
           2

 O   2.71212220       0.00000000       0.00000000      0.536169350    
 C   0.00000000       0.00000000      0.536169350       0.00000000    
           2

 O   2.64376640       0.00000000       0.00000000      0.627218604    
 C   0.00000000       0.00000000      0.627218604       0.00000000    
           2

 O   2.60001445       0.00000000       0.00000000      0.685495675    
 C   0.00000000       0.00000000      0.685495675       0.00000000    
           2

 O   2.59716511       0.00000000       0.00000000      0.689291000    
 C   0.00000000       0.00000000      0.689291000       0.00000000    
           2

 O   2.63644767       0.00000000       0.00000000      0.636966765    
 C   0.00000000       0.00000000      0.636966765       0.00000000    
           2

 O   2.70274687       0.00000000       0.00000000      0.548656583    
 C   0.00000000       0.00000000      0.548656583       0.00000000    
           2

 O   2.77799892       0.00000000       0.00000000      0.448421240    
 C   0.00000000       0.00000000      0.448421240       0.00000000    
           2

 O   2.84976864       0.00000000       0.00000000      0.352824509    
 C   0.00000000       0.00000000      0.352824509       0.00000000    
           2

 O   2.91146088       0.00000000       0.00000000      0.270650685    
 C   0.00000000       0.00000000      0.270650685       0.00000000    
           2

 O   2.96008611       0.00000000       0.00000000      0.205882147    
 C   0.00000000       0.00000000      0.205882147       0.00000000    
           2

 O   2.99446702       0.00000000       0.00000000      0.160087019    
 C   0.00000000       0.00000000      0.160087019       0.00000000    
           2

 O   3.01422286       0.00000000       0.00000000      0.133772239    
 C   0.00000000       0.00000000      0.133772239       0.00000000    
           2

 O   3.01926756       0.00000000       0.00000000      0.127052501    
 C   0.00000000       0.00000000      0.127052501       0.00000000    
           2

 O   3.00959277       0.00000000       0.00000000      0.139939234    
 C   0.00000000       0.00000000      0.139939234       0.00000000    
           2

 O   2.98521948       0.00000000       0.00000000      0.172404364    
 C   0.00000000       0.00000000      0.172404364       0.00000000    
           2

 O   2.94629264       0.00000000       0.00000000      0.224254549    
 C   0.00000000       0.00000000      0.224254549       0.00000000    
           2

 O   2.89337087       0.00000000       0.00000000      0.294745982    
 C   0.00000000       0.00000000      0.294745982       0.00000000    
           2

 O   2.82805943       0.00000000       0.00000000      0.381740153    
 C   0.00000000       0.00000000      0.381740153       0.00000000    
           2

 O   2.75424933       0.00000000       0.00000000      0.480054706    
 C   0.00000000       0.00000000      0.480054706       0.00000000    
           2

 O   2.68015170       0.00000000       0.00000000      0.578752339    
 C   0.00000000       0.00000000      0.578752339       0.00000000    
           2

 O   2.62026930       0.00000000       0.00000000      0.658515096    
 C   0.00000000       0.00000000      0.658515096       0.00000000    
           2

 O   2.59316707       0.00000000       0.00000000      0.694615066    
 C   0.00000000       0.00000000      0.694615066       0.00000000    
           2

 O   2.60995984       0.00000000       0.00000000      0.672247112    
 C   0.00000000       0.00000000      0.672247112       0.00000000    
           2

 O   2.66353440       0.00000000       0.00000000      0.600885987    
 C   0.00000000       0.00000000      0.600885987       0.00000000    
           2

 O   2.73575354       0.00000000       0.00000000      0.504690468    
 C   0.00000000       0.00000000      0.504690468       0.00000000    
           2

 O   2.81060863       0.00000000       0.00000000      0.404983759    
 C   0.00000000       0.00000000      0.404983759       0.00000000    
           2

 O   2.87847805       0.00000000       0.00000000      0.314582109    
 C   0.00000000       0.00000000      0.314582109       0.00000000    
           2

 O   2.93463206       0.00000000       0.00000000      0.239785314    
 C   0.00000000       0.00000000      0.239785314       0.00000000    
           2

 O   2.97705126       0.00000000       0.00000000      0.183283031    
 C   0.00000000       0.00000000      0.183283031       0.00000000    
           2

 O   3.00499845       0.00000000       0.00000000      0.146057531    
 C   0.00000000       0.00000000      0.146057531       0.00000000    
           2

 O   3.01826406       0.00000000       0.00000000      0.128387868    
 C   0.00000000       0.00000000      0.128387868       0.00000000    
           2

 O   3.01681113       0.00000000       0.00000000      0.130322963    
 C   0.00000000       0.00000000      0.130322963       0.00000000    
           2

 O   3.00064230       0.00000000       0.00000000      0.151859820    
 C   0.00000000       0.00000000      0.151859820       0.00000000    
           2

 O   2.96981215       0.00000000       0.00000000      0.192925408    
 C   0.00000000       0.00000000      0.192925408       0.00000000    
           2

 O   2.92459679       0.00000000       0.00000000      0.253151774    
 C   0.00000000       0.00000000      0.253151774       0.00000000    
           2

 O   2.86591029       0.00000000       0.00000000      0.331321836    
 C   0.00000000       0.00000000      0.331321836       0.00000000    
           2

 O   2.79616737       0.00000000       0.00000000      0.424219012    
 C   0.00000000       0.00000000      0.424219012       0.00000000    
           2

 O   2.72087431       0.00000000       0.00000000      0.524508953    
 C   0.00000000       0.00000000      0.524508953       0.00000000    
           2

 O   2.65087867       0.00000000       0.00000000      0.617742598    
 C   0.00000000       0.00000000      0.617742598       0.00000000    
           2

 O   2.60325122       0.00000000       0.00000000      0.681181908    
 C   0.00000000       0.00000000      0.681181908       0.00000000    
           2

 O   2.59515595       0.00000000       0.00000000      0.691964686    
 C   0.00000000       0.00000000      0.691964686       0.00000000    
           2

 O   2.63007283       0.00000000       0.00000000      0.645455718    
 C   0.00000000       0.00000000      0.645455718       0.00000000    
           2

 O   2.69420433       0.00000000       0.00000000      0.560032725    
 C   0.00000000       0.00000000      0.560032725       0.00000000    
           2

 O   2.76918125       0.00000000       0.00000000      0.460163891    
 C   0.00000000       0.00000000      0.460163891       0.00000000    
           2

 O   2.84179306       0.00000000       0.00000000      0.363445252    
 C   0.00000000       0.00000000      0.363445252       0.00000000    
           2

 O   2.90487075       0.00000000       0.00000000      0.279426008    
 C   0.00000000       0.00000000      0.279426008       0.00000000    
           2

 O   2.95511127       0.00000000       0.00000000      0.212505847    
 C   0.00000000       0.00000000      0.212505847       0.00000000    
           2

 O   2.99119043       0.00000000       0.00000000      0.164448619    
 C   0.00000000       0.00000000      0.164448619       0.00000000    
           2

 O   3.01266742       0.00000000       0.00000000      0.135841191    
 C   0.00000000       0.00000000      0.135841191       0.00000000    
           2

 O   3.01943707       0.00000000       0.00000000      0.126823887    
 C   0.00000000       0.00000000      0.126823887       0.00000000    
           2

 O   3.01148701       0.00000000       0.00000000      0.137413323    
 C   0.00000000       0.00000000      0.137413323       0.00000000    
           2

 O   2.98883271       0.00000000       0.00000000      0.167588696    
 C   0.00000000       0.00000000      0.167588696       0.00000000    
           2

 O   2.95159435       0.00000000       0.00000000      0.217189729    
 C   0.00000000       0.00000000      0.217189729       0.00000000    
           2

 O   2.90025806       0.00000000       0.00000000      0.285569340    
 C   0.00000000       0.00000000      0.285569340       0.00000000    
           2

 O   2.83625674       0.00000000       0.00000000      0.370818555    
 C   0.00000000       0.00000000      0.370818555       0.00000000    
           2

 O   2.76312304       0.00000000       0.00000000      0.468232155    
 C   0.00000000       0.00000000      0.468232155       0.00000000    
           2

 O   2.68843818       0.00000000       0.00000000      0.567711830    
 C   0.00000000       0.00000000      0.567711830       0.00000000    
           2

 O   2.62594151       0.00000000       0.00000000      0.650956810    
 C   0.00000000       0.00000000      0.650956810       0.00000000    
           2

 O   2.59413409       0.00000000       0.00000000      0.693323970    
 C   0.00000000       0.00000000      0.693323970       0.00000000    
           2

 O   2.60579062       0.00000000       0.00000000      0.677797556    
 C   0.00000000       0.00000000      0.677797556       0.00000000    
           2

 O   2.65592384       0.00000000       0.00000000      0.611020446    
 C   0.00000000       0.00000000      0.611020446       0.00000000    
           2

 O   2.72690248       0.00000000       0.00000000      0.516477227    
 C   0.00000000       0.00000000      0.516477227       0.00000000    
           2

 O   2.80206513       0.00000000       0.00000000      0.416360945    
 C   0.00000000       0.00000000      0.416360945       0.00000000    
           2

 O   2.87106991       0.00000000       0.00000000      0.324446768    
 C   0.00000000       0.00000000      0.324446768       0.00000000    
           2

 O   2.92873740       0.00000000       0.00000000      0.247634053    
 C   0.00000000       0.00000000      0.247634053       0.00000000    
           2

 O   2.97282028       0.00000000       0.00000000      0.188915953    
 C   0.00000000       0.00000000      0.188915953       0.00000000    
           2

 O   3.00248003       0.00000000       0.00000000      0.149409220    
 C   0.00000000       0.00000000      0.149409220       0.00000000    
           2

 O   3.01746941       0.00000000       0.00000000      0.129443347    
 C   0.00000000       0.00000000      0.129443347       0.00000000    
           2

 O   3.01774168       0.00000000       0.00000000      0.129080668    
 C   0.00000000       0.00000000      0.129080668       0.00000000    
           2

 O   3.00329638       0.00000000       0.00000000      0.148321718    
 C   0.00000000       0.00000000      0.148321718       0.00000000    
           2

 O   2.97417688       0.00000000       0.00000000      0.187108696    
 C   0.00000000       0.00000000      0.187108696       0.00000000    
           2

 O   2.93061805       0.00000000       0.00000000      0.245128736    
 C   0.00000000       0.00000000      0.245128736       0.00000000    
           2

 O   2.87342525       0.00000000       0.00000000      0.321309060    
 C   0.00000000       0.00000000      0.321309060       0.00000000    
           2

 O   2.80477166       0.00000000       0.00000000      0.412755191    
 C   0.00000000       0.00000000      0.412755191       0.00000000    
           2

 O   2.72969127       0.00000000       0.00000000      0.512761593    
 C   0.00000000       0.00000000      0.512761593       0.00000000    
           2

 O   2.65829611       0.00000000       0.00000000      0.607859313    
 C   0.00000000       0.00000000      0.607859313       0.00000000    
           2

 O   2.60704803       0.00000000       0.00000000      0.676121294    
 C   0.00000000       0.00000000      0.676121294       0.00000000    
           2

 O   2.59376025       0.00000000       0.00000000      0.693820357    
 C   0.00000000       0.00000000      0.693820357       0.00000000    
           2

 O   2.62410235       0.00000000       0.00000000      0.653404891    
 C   0.00000000       0.00000000      0.653404891       0.00000000    
           2

 O   2.68580270       0.00000000       0.00000000      0.571220398    
 C   0.00000000       0.00000000      0.571220398       0.00000000    
           2

 O   2.76032305       0.00000000       0.00000000      0.471959591    
 C   0.00000000       0.00000000      0.471959591       0.00000000    
           2

 O   2.83368158       0.00000000       0.00000000      0.374246418    
 C   0.00000000       0.00000000      0.374246418       0.00000000    
           2

 O   2.89810157       0.00000000       0.00000000      0.288439393    
 C   0.00000000       0.00000000      0.288439393       0.00000000    
           2

 O   2.94994044       0.00000000       0.00000000      0.219390318    
 C   0.00000000       0.00000000      0.219390318       0.00000000    
           2

 O   2.98771238       0.00000000       0.00000000      0.169078320    
 C   0.00000000       0.00000000      0.169078320       0.00000000    
           2

 O   3.01090932       0.00000000       0.00000000      0.138179883    
 C   0.00000000       0.00000000      0.138179883       0.00000000    
           2

 O   3.01940370       0.00000000       0.00000000      0.126865193    
 C   0.00000000       0.00000000      0.126865193       0.00000000    
           2

 O   3.01317835       0.00000000       0.00000000      0.135157198    
 C   0.00000000       0.00000000      0.135157198       0.00000000    
           2

 O   2.99224448       0.00000000       0.00000000      0.163041010    
 C   0.00000000       0.00000000      0.163041010       0.00000000    
           2

 O   2.95670080       0.00000000       0.00000000      0.210384846    
 C   0.00000000       0.00000000      0.210384846       0.00000000    
           2

 O   2.90696836       0.00000000       0.00000000      0.276628077    
 C   0.00000000       0.00000000      0.276628077       0.00000000    
           2

 O   2.84432340       0.00000000       0.00000000      0.360070676    
 C   0.00000000       0.00000000      0.360070676       0.00000000    
           2

 O   2.77196741       0.00000000       0.00000000      0.456448346    
 C   0.00000000       0.00000000      0.456448346       0.00000000    
           2

 O   2.69688463       0.00000000       0.00000000      0.556458116    
 C   0.00000000       0.00000000      0.556458116       0.00000000    
           2

 O   2.63204050       0.00000000       0.00000000      0.642830014    
 C   0.00000000       0.00000000      0.642830014       0.00000000    
           2

 O   2.59572196       0.00000000       0.00000000      0.691205859    
 C   0.00000000       0.00000000      0.691205859       0.00000000    
           2

 O   2.60216546       0.00000000       0.00000000      0.682623088    
 C   0.00000000       0.00000000      0.682623088       0.00000000    
           2

 O   2.64859653       0.00000000       0.00000000      0.620777130    
 C   0.00000000       0.00000000      0.620777130       0.00000000    
           2

 O   2.71810079       0.00000000       0.00000000      0.528197765    
 C   0.00000000       0.00000000      0.528197765       0.00000000    
           2

 O   2.79343104       0.00000000       0.00000000      0.427858204    
 C   0.00000000       0.00000000      0.427858204       0.00000000    
           2

 O   2.86350298       0.00000000       0.00000000      0.334522665    
 C   0.00000000       0.00000000      0.334522665       0.00000000    
           2

 O   2.92265463       0.00000000       0.00000000      0.255732954    
 C   0.00000000       0.00000000      0.255732954       0.00000000    
           2

 O   2.96839023       0.00000000       0.00000000      0.194813251    
 C   0.00000000       0.00000000      0.194813251       0.00000000    
           2

 O   2.99975967       0.00000000       0.00000000      0.153029278    
 C   0.00000000       0.00000000      0.153029278       0.00000000    
           2

 O   3.01647234       0.00000000       0.00000000      0.130767852    
 C   0.00000000       0.00000000      0.130767852       0.00000000    
           2

 O   3.01846957       0.00000000       0.00000000      0.128107429    
 C   0.00000000       0.00000000      0.128107429       0.00000000    
           2

 O   3.00574827       0.00000000       0.00000000      0.145052120    
 C   0.00000000       0.00000000      0.145052120       0.00000000    
           2

 O   2.97834206       0.00000000       0.00000000      0.181556761    
 C   0.00000000       0.00000000      0.181556761       0.00000000    
           2

 O   2.93644977       0.00000000       0.00000000      0.237356916    
 C   0.00000000       0.00000000      0.237356916       0.00000000    
           2

 O   2.88077903       0.00000000       0.00000000      0.311509937    
 C   0.00000000       0.00000000      0.311509937       0.00000000    
           2

 O   2.81328130       0.00000000       0.00000000      0.401416481    
 C   0.00000000       0.00000000      0.401416481       0.00000000    
           2

 O   2.73855042       0.00000000       0.00000000      0.500957370    
 C   0.00000000       0.00000000      0.500957370       0.00000000    
           2

 O   2.66598654       0.00000000       0.00000000      0.597611904    
 C   0.00000000       0.00000000      0.597611904       0.00000000    
           2

 O   2.61138082       0.00000000       0.00000000      0.670346379    
 C   0.00000000       0.00000000      0.670346379       0.00000000    
           2

 O   2.59298801       0.00000000       0.00000000      0.694845498    
 C   0.00000000       0.00000000      0.694845498       0.00000000    
           2

 O   2.61856866       0.00000000       0.00000000      0.660772145    
 C   0.00000000       0.00000000      0.660772145       0.00000000    
