           2

 O   2.40398121       0.00000000       0.00000000      -374.217590    
 C   0.00000000       0.00000000      -374.217590       0.00000000    
           2

 O   2.50796247       0.00000000       0.00000000      -374.356079    
 C   0.00000000       0.00000000      -374.356079       0.00000000    
           2

 O   2.61194372       0.00000000       0.00000000      -374.494568    
 C   0.00000000       0.00000000      -374.494568       0.00000000    
           2

 O   2.71592498       0.00000000       0.00000000      -374.633057    
 C   0.00000000       0.00000000      -374.633057       0.00000000    
           2

 O   2.81990623       0.00000000       0.00000000      -374.771545    
 C   0.00000000       0.00000000      -374.771545       0.00000000    
           2

 O   2.92388749       0.00000000       0.00000000      -374.910034    
 C   0.00000000       0.00000000      -374.910034       0.00000000    
           2

 O   3.02786875       0.00000000       0.00000000      -375.048523    
 C   0.00000000       0.00000000      -375.048523       0.00000000    
           2

 O   3.13185000       0.00000000       0.00000000      -375.187012    
 C   0.00000000       0.00000000      -375.187012       0.00000000    
           2

 O   3.23583126       0.00000000       0.00000000      -375.325500    
 C   0.00000000       0.00000000      -375.325500       0.00000000    
           2

 O   3.33981252       0.00000000       0.00000000      -375.463989    
 C   0.00000000       0.00000000      -375.463989       0.00000000    
           2

 O   3.44379377       0.00000000       0.00000000      -375.602478    
 C   0.00000000       0.00000000      -375.602478       0.00000000    
           2

 O   3.54777503       0.00000000       0.00000000      -375.740967    
 C   0.00000000       0.00000000      -375.740967       0.00000000    
           2

 O   3.65175629       0.00000000       0.00000000      -375.879456    
 C   0.00000000       0.00000000      -375.879456       0.00000000    
           2

 O   3.75573754       0.00000000       0.00000000      -376.017944    
 C   0.00000000       0.00000000      -376.017944       0.00000000    
           2

 O   3.85971880       0.00000000       0.00000000      -376.156433    
 C   0.00000000       0.00000000      -376.156433       0.00000000    
           2

 O   3.96370006       0.00000000       0.00000000      -376.294922    
 C   0.00000000       0.00000000      -376.294922       0.00000000    
           2

 O   4.06768131       0.00000000       0.00000000      -376.433411    
 C   0.00000000       0.00000000      -376.433411       0.00000000    
           2

 O   4.17166233       0.00000000       0.00000000      -376.571899    
 C   0.00000000       0.00000000      -376.571899       0.00000000    
           2

 O   4.27564335       0.00000000       0.00000000      -376.710388    
 C   0.00000000       0.00000000      -376.710388       0.00000000    
           2

 O   4.37962437       0.00000000       0.00000000      -376.848877    
 C   0.00000000       0.00000000      -376.848877       0.00000000    
           2

 O   4.48360538       0.00000000       0.00000000      -376.987366    
 C   0.00000000       0.00000000      -376.987366       0.00000000    
           2

 O   4.58758640       0.00000000       0.00000000      -377.125854    
 C   0.00000000       0.00000000      -377.125854       0.00000000    
           2

 O   4.69156742       0.00000000       0.00000000      -377.264343    
 C   0.00000000       0.00000000      -377.264343       0.00000000    
           2

 O   4.79554844       0.00000000       0.00000000      -377.402832    
 C   0.00000000       0.00000000      -377.402832       0.00000000    
           2

 O   4.89952946       0.00000000       0.00000000      -377.541321    
 C   0.00000000       0.00000000      -377.541321       0.00000000    
           2

 O   5.00351048       0.00000000       0.00000000      -377.679810    
 C   0.00000000       0.00000000      -377.679810       0.00000000    
           2

 O   5.10749149       0.00000000       0.00000000      -377.818298    
 C   0.00000000       0.00000000      -377.818298       0.00000000    
           2

 O   5.21147251       0.00000000       0.00000000      -377.956787    
 C   0.00000000       0.00000000      -377.956787       0.00000000    
           2

 O   5.31545353       0.00000000       0.00000000      -378.095276    
 C   0.00000000       0.00000000      -378.095276       0.00000000    
           2

 O   5.41943455       0.00000000       0.00000000      -378.233765    
 C   0.00000000       0.00000000      -378.233765       0.00000000    
           2

 O   5.52341557       0.00000000       0.00000000      -378.372253    
 C   0.00000000       0.00000000      -378.372253       0.00000000    
           2

 O   5.62739658       0.00000000       0.00000000      -378.510742    
 C   0.00000000       0.00000000      -378.510742       0.00000000    
           2

 O   5.73137760       0.00000000       0.00000000      -378.649231    
 C   0.00000000       0.00000000      -378.649231       0.00000000    
           2

 O   5.83535862       0.00000000       0.00000000      -378.787720    
 C   0.00000000       0.00000000      -378.787720       0.00000000    
           2

 O   5.93933964       0.00000000       0.00000000      -378.926208    
 C   0.00000000       0.00000000      -378.926208       0.00000000    
           2

 O   6.04332066       0.00000000       0.00000000      -379.064697    
 C   0.00000000       0.00000000      -379.064697       0.00000000    
           2

 O   6.14730167       0.00000000       0.00000000      -379.203186    
 C   0.00000000       0.00000000      -379.203186       0.00000000    
           2

 O   6.25128269       0.00000000       0.00000000      -379.341675    
 C   0.00000000       0.00000000      -379.341675       0.00000000    
           2

 O   6.35526371       0.00000000       0.00000000      -379.480164    
 C   0.00000000       0.00000000      -379.480164       0.00000000    
           2

 O   6.45924473       0.00000000       0.00000000      -379.618652    
 C   0.00000000       0.00000000      -379.618652       0.00000000    
           2

 O   6.56322575       0.00000000       0.00000000      -379.757141    
 C   0.00000000       0.00000000      -379.757141       0.00000000    
           2

 O   6.66720676       0.00000000       0.00000000      -379.895630    
 C   0.00000000       0.00000000      -379.895630       0.00000000    
           2

 O   6.77118778       0.00000000       0.00000000      -380.034119    
 C   0.00000000       0.00000000      -380.034119       0.00000000    
           2

 O   6.87516880       0.00000000       0.00000000      -380.172607    
 C   0.00000000       0.00000000      -380.172607       0.00000000    
           2

 O   6.97914982       0.00000000       0.00000000      -380.311096    
 C   0.00000000       0.00000000      -380.311096       0.00000000    
           2

 O   7.08313084       0.00000000       0.00000000      -380.449585    
 C   0.00000000       0.00000000      -380.449585       0.00000000    
           2

 O   7.18711185       0.00000000       0.00000000      -380.588074    
 C   0.00000000       0.00000000      -380.588074       0.00000000    
           2

 O   7.29109287       0.00000000       0.00000000      -380.726562    
 C   0.00000000       0.00000000      -380.726562       0.00000000    
           2

 O   7.39507389       0.00000000       0.00000000      -380.865051    
 C   0.00000000       0.00000000      -380.865051       0.00000000    
           2

 O   7.49905491       0.00000000       0.00000000      -381.003540    
 C   0.00000000       0.00000000      -381.003540       0.00000000    
           2

 O   7.60303593       0.00000000       0.00000000      -381.142029    
 C   0.00000000       0.00000000      -381.142029       0.00000000    
           2

 O   7.70701694       0.00000000       0.00000000      -381.280518    
 C   0.00000000       0.00000000      -381.280518       0.00000000    
           2

 O   7.81099796       0.00000000       0.00000000      -381.419006    
 C   0.00000000       0.00000000      -381.419006       0.00000000    
           2

 O   7.91497898       0.00000000       0.00000000      -381.557495    
 C   0.00000000       0.00000000      -381.557495       0.00000000    
           2

 O   8.01896000       0.00000000       0.00000000      -381.695984    
 C   0.00000000       0.00000000      -381.695984       0.00000000    
           2

 O   8.12294102       0.00000000       0.00000000      -381.834473    
 C   0.00000000       0.00000000      -381.834473       0.00000000    
           2

 O   8.22692204       0.00000000       0.00000000      -381.972961    
 C   0.00000000       0.00000000      -381.972961       0.00000000    
           2

 O   8.33090305       0.00000000       0.00000000      -382.111450    
 C   0.00000000       0.00000000      -382.111450       0.00000000    
           2

 O   8.43488407       0.00000000       0.00000000      -382.249939    
 C   0.00000000       0.00000000      -382.249939       0.00000000    
           2

 O   8.53886509       0.00000000       0.00000000      -382.388428    
 C   0.00000000       0.00000000      -382.388428       0.00000000    
           2

 O   8.64284611       0.00000000       0.00000000      -382.526917    
 C   0.00000000       0.00000000      -382.526917       0.00000000    
           2

 O   8.74682713       0.00000000       0.00000000      -382.665405    
 C   0.00000000       0.00000000      -382.665405       0.00000000    
           2

 O   8.85080814       0.00000000       0.00000000      -382.803894    
 C   0.00000000       0.00000000      -382.803894       0.00000000    
           2

 O   8.95478916       0.00000000       0.00000000      -382.942383    
 C   0.00000000       0.00000000      -382.942383       0.00000000    
           2

 O   9.05877018       0.00000000       0.00000000      -383.080872    
 C   0.00000000       0.00000000      -383.080872       0.00000000    
           2

 O   9.16275120       0.00000000       0.00000000      -383.219360    
 C   0.00000000       0.00000000      -383.219360       0.00000000    
           2

 O   9.26673222       0.00000000       0.00000000      -383.357849    
 C   0.00000000       0.00000000      -383.357849       0.00000000    
           2

 O   9.37071323       0.00000000       0.00000000      -383.496338    
 C   0.00000000       0.00000000      -383.496338       0.00000000    
           2

 O   9.47469425       0.00000000       0.00000000      -383.634827    
 C   0.00000000       0.00000000      -383.634827       0.00000000    
           2

 O   9.57867527       0.00000000       0.00000000      -383.773315    
 C   0.00000000       0.00000000      -383.773315       0.00000000    
           2

 O   9.68265629       0.00000000       0.00000000      -383.911804    
 C   0.00000000       0.00000000      -383.911804       0.00000000    
           2

 O   9.78663731       0.00000000       0.00000000      -384.050293    
 C   0.00000000       0.00000000      -384.050293       0.00000000    
           2

 O   9.89061832       0.00000000       0.00000000      -384.188782    
 C   0.00000000       0.00000000      -384.188782       0.00000000    
           2

 O   9.99459934       0.00000000       0.00000000      -384.327271    
 C   0.00000000       0.00000000      -384.327271       0.00000000    
           2

 O   10.0985804       0.00000000       0.00000000      -384.465759    
 C   0.00000000       0.00000000      -384.465759       0.00000000    
           2

 O   10.2025614       0.00000000       0.00000000      -384.604248    
 C   0.00000000       0.00000000      -384.604248       0.00000000    
           2

 O   10.3065424       0.00000000       0.00000000      -384.742737    
 C   0.00000000       0.00000000      -384.742737       0.00000000    
           2

 O   10.4105234       0.00000000       0.00000000      -384.881226    
 C   0.00000000       0.00000000      -384.881226       0.00000000    
           2

 O   10.5145044       0.00000000       0.00000000      -385.019714    
 C   0.00000000       0.00000000      -385.019714       0.00000000    
           2

 O   10.6184855       0.00000000       0.00000000      -385.158203    
 C   0.00000000       0.00000000      -385.158203       0.00000000    
           2

 O   10.7224665       0.00000000       0.00000000      -385.296692    
 C   0.00000000       0.00000000      -385.296692       0.00000000    
           2

 O   10.8264475       0.00000000       0.00000000      -385.435181    
 C   0.00000000       0.00000000      -385.435181       0.00000000    
           2

 O   10.9304285       0.00000000       0.00000000      -385.573669    
 C   0.00000000       0.00000000      -385.573669       0.00000000    
           2

 O   11.0344095       0.00000000       0.00000000      -385.712158    
 C   0.00000000       0.00000000      -385.712158       0.00000000    
           2

 O   11.1383905       0.00000000       0.00000000      -385.850647    
 C   0.00000000       0.00000000      -385.850647       0.00000000    
           2

 O   11.2423716       0.00000000       0.00000000      -385.989136    
 C   0.00000000       0.00000000      -385.989136       0.00000000    
           2

 O   11.3463526       0.00000000       0.00000000      -386.127625    
 C   0.00000000       0.00000000      -386.127625       0.00000000    
           2

 O   11.4503336       0.00000000       0.00000000      -386.266113    
 C   0.00000000       0.00000000      -386.266113       0.00000000    
           2

 O   11.5543146       0.00000000       0.00000000      -386.404602    
 C   0.00000000       0.00000000      -386.404602       0.00000000    
           2

 O   11.6582956       0.00000000       0.00000000      -386.543091    
 C   0.00000000       0.00000000      -386.543091       0.00000000    
           2

 O   11.7622766       0.00000000       0.00000000      -386.681580    
 C   0.00000000       0.00000000      -386.681580       0.00000000    
           2

 O   11.8662577       0.00000000       0.00000000      -386.820068    
 C   0.00000000       0.00000000      -386.820068       0.00000000    
           2

 O   11.9702387       0.00000000       0.00000000      -386.958557    
 C   0.00000000       0.00000000      -386.958557       0.00000000    
           2

 O   12.0742197       0.00000000       0.00000000      -387.097046    
 C   0.00000000       0.00000000      -387.097046       0.00000000    
           2

 O   12.1782007       0.00000000       0.00000000      -387.235535    
 C   0.00000000       0.00000000      -387.235535       0.00000000    
           2

 O   12.2821817       0.00000000       0.00000000      -387.374023    
 C   0.00000000       0.00000000      -387.374023       0.00000000    
           2

 O   12.3861628       0.00000000       0.00000000      -387.512512    
 C   0.00000000       0.00000000      -387.512512       0.00000000    
           2

 O   12.4901438       0.00000000       0.00000000      -387.651001    
 C   0.00000000       0.00000000      -387.651001       0.00000000    
           2

 O   12.5941248       0.00000000       0.00000000      -387.789490    
 C   0.00000000       0.00000000      -387.789490       0.00000000    
           2

 O   12.6981058       0.00000000       0.00000000      -387.927979    
 C   0.00000000       0.00000000      -387.927979       0.00000000    
           2

 O   12.8020868       0.00000000       0.00000000      -388.066467    
 C   0.00000000       0.00000000      -388.066467       0.00000000    
           2

 O   12.9060678       0.00000000       0.00000000      -388.204956    
 C   0.00000000       0.00000000      -388.204956       0.00000000    
           2

 O   13.0100489       0.00000000       0.00000000      -388.343445    
 C   0.00000000       0.00000000      -388.343445       0.00000000    
           2

 O   13.1140299       0.00000000       0.00000000      -388.481934    
 C   0.00000000       0.00000000      -388.481934       0.00000000    
           2

 O   13.2180109       0.00000000       0.00000000      -388.620422    
 C   0.00000000       0.00000000      -388.620422       0.00000000    
           2

 O   13.3219919       0.00000000       0.00000000      -388.758911    
 C   0.00000000       0.00000000      -388.758911       0.00000000    
           2

 O   13.4259729       0.00000000       0.00000000      -388.897400    
 C   0.00000000       0.00000000      -388.897400       0.00000000    
           2

 O   13.5299540       0.00000000       0.00000000      -389.035889    
 C   0.00000000       0.00000000      -389.035889       0.00000000    
           2

 O   13.6339350       0.00000000       0.00000000      -389.174377    
 C   0.00000000       0.00000000      -389.174377       0.00000000    
           2

 O   13.7379160       0.00000000       0.00000000      -389.312866    
 C   0.00000000       0.00000000      -389.312866       0.00000000    
           2

 O   13.8418970       0.00000000       0.00000000      -389.451355    
 C   0.00000000       0.00000000      -389.451355       0.00000000    
           2

 O   13.9458780       0.00000000       0.00000000      -389.589844    
 C   0.00000000       0.00000000      -389.589844       0.00000000    
           2

 O   14.0498590       0.00000000       0.00000000      -389.728333    
 C   0.00000000       0.00000000      -389.728333       0.00000000    
           2

 O   14.1538401       0.00000000       0.00000000      -389.866821    
 C   0.00000000       0.00000000      -389.866821       0.00000000    
           2

 O   14.2578211       0.00000000       0.00000000      -390.005310    
 C   0.00000000       0.00000000      -390.005310       0.00000000    
           2

 O   14.3618021       0.00000000       0.00000000      -390.143799    
 C   0.00000000       0.00000000      -390.143799       0.00000000    
           2

 O   14.4657831       0.00000000       0.00000000      -390.282288    
 C   0.00000000       0.00000000      -390.282288       0.00000000    
           2

 O   14.5697641       0.00000000       0.00000000      -390.420776    
 C   0.00000000       0.00000000      -390.420776       0.00000000    
           2

 O   14.6737452       0.00000000       0.00000000      -390.559265    
 C   0.00000000       0.00000000      -390.559265       0.00000000    
           2

 O   14.7777262       0.00000000       0.00000000      -390.697754    
 C   0.00000000       0.00000000      -390.697754       0.00000000    
           2

 O   14.8817072       0.00000000       0.00000000      -390.836243    
 C   0.00000000       0.00000000      -390.836243       0.00000000    
           2

 O   14.9856882       0.00000000       0.00000000      -390.974731    
 C   0.00000000       0.00000000      -390.974731       0.00000000    
           2

 O   15.0896692       0.00000000       0.00000000      -391.113220    
 C   0.00000000       0.00000000      -391.113220       0.00000000    
           2

 O   15.1936502       0.00000000       0.00000000      -391.251709    
 C   0.00000000       0.00000000      -391.251709       0.00000000    
           2

 O   15.2976313       0.00000000       0.00000000      -391.390198    
 C   0.00000000       0.00000000      -391.390198       0.00000000    
           2

 O   15.4016123       0.00000000       0.00000000      -391.528687    
 C   0.00000000       0.00000000      -391.528687       0.00000000    
           2

 O   15.5055933       0.00000000       0.00000000      -391.667175    
 C   0.00000000       0.00000000      -391.667175       0.00000000    
           2

 O   15.6095743       0.00000000       0.00000000      -391.805664    
 C   0.00000000       0.00000000      -391.805664       0.00000000    
           2

 O   15.7135553       0.00000000       0.00000000      -391.944153    
 C   0.00000000       0.00000000      -391.944153       0.00000000    
           2

 O   15.8175364       0.00000000       0.00000000      -392.082642    
 C   0.00000000       0.00000000      -392.082642       0.00000000    
           2

 O   15.9215174       0.00000000       0.00000000      -392.221130    
 C   0.00000000       0.00000000      -392.221130       0.00000000    
           2

 O   16.0254993       0.00000000       0.00000000      -392.359619    
 C   0.00000000       0.00000000      -392.359619       0.00000000    
           2

 O   16.1294804       0.00000000       0.00000000      -392.498108    
 C   0.00000000       0.00000000      -392.498108       0.00000000    
           2

 O   16.2334614       0.00000000       0.00000000      -392.636597    
 C   0.00000000       0.00000000      -392.636597       0.00000000    
           2

 O   16.3374424       0.00000000       0.00000000      -392.775085    
 C   0.00000000       0.00000000      -392.775085       0.00000000    
           2

 O   16.4414234       0.00000000       0.00000000      -392.913574    
 C   0.00000000       0.00000000      -392.913574       0.00000000    
           2

 O   16.5454044       0.00000000       0.00000000      -393.052063    
 C   0.00000000       0.00000000      -393.052063       0.00000000    
           2

 O   16.6493855       0.00000000       0.00000000      -393.190552    
 C   0.00000000       0.00000000      -393.190552       0.00000000    
           2

 O   16.7533665       0.00000000       0.00000000      -393.329041    
 C   0.00000000       0.00000000      -393.329041       0.00000000    
           2

 O   16.8573475       0.00000000       0.00000000      -393.467529    
 C   0.00000000       0.00000000      -393.467529       0.00000000    
           2

 O   16.9613285       0.00000000       0.00000000      -393.606018    
 C   0.00000000       0.00000000      -393.606018       0.00000000    
           2

 O   17.0653095       0.00000000       0.00000000      -393.744507    
 C   0.00000000       0.00000000      -393.744507       0.00000000    
           2

 O   17.1692905       0.00000000       0.00000000      -393.882996    
 C   0.00000000       0.00000000      -393.882996       0.00000000    
           2

 O   17.2732716       0.00000000       0.00000000      -394.021484    
 C   0.00000000       0.00000000      -394.021484       0.00000000    
           2

 O   17.3772526       0.00000000       0.00000000      -394.159973    
 C   0.00000000       0.00000000      -394.159973       0.00000000    
           2

 O   17.4812336       0.00000000       0.00000000      -394.298462    
 C   0.00000000       0.00000000      -394.298462       0.00000000    
           2

 O   17.5852146       0.00000000       0.00000000      -394.436951    
 C   0.00000000       0.00000000      -394.436951       0.00000000    
           2

 O   17.6891956       0.00000000       0.00000000      -394.575439    
 C   0.00000000       0.00000000      -394.575439       0.00000000    
           2

 O   17.7931767       0.00000000       0.00000000      -394.713928    
 C   0.00000000       0.00000000      -394.713928       0.00000000    
           2

 O   17.8971577       0.00000000       0.00000000      -394.852417    
 C   0.00000000       0.00000000      -394.852417       0.00000000    
           2

 O   18.0011387       0.00000000       0.00000000      -394.990906    
 C   0.00000000       0.00000000      -394.990906       0.00000000    
           2

 O   18.1051197       0.00000000       0.00000000      -395.129395    
 C   0.00000000       0.00000000      -395.129395       0.00000000    
           2

 O   18.2091007       0.00000000       0.00000000      -395.267883    
 C   0.00000000       0.00000000      -395.267883       0.00000000    
           2

 O   18.3130817       0.00000000       0.00000000      -395.406372    
 C   0.00000000       0.00000000      -395.406372       0.00000000    
           2

 O   18.4170628       0.00000000       0.00000000      -395.544861    
 C   0.00000000       0.00000000      -395.544861       0.00000000    
           2

 O   18.5210438       0.00000000       0.00000000      -395.683350    
 C   0.00000000       0.00000000      -395.683350       0.00000000    
           2

 O   18.6250248       0.00000000       0.00000000      -395.821838    
 C   0.00000000       0.00000000      -395.821838       0.00000000    
           2

 O   18.7290058       0.00000000       0.00000000      -395.960327    
 C   0.00000000       0.00000000      -395.960327       0.00000000    
           2

 O   18.8329868       0.00000000       0.00000000      -396.098816    
 C   0.00000000       0.00000000      -396.098816       0.00000000    
           2

 O   18.9369678       0.00000000       0.00000000      -396.237305    
 C   0.00000000       0.00000000      -396.237305       0.00000000    
           2

 O   19.0409489       0.00000000       0.00000000      -396.375793    
 C   0.00000000       0.00000000      -396.375793       0.00000000    
           2

 O   19.1449299       0.00000000       0.00000000      -396.514282    
 C   0.00000000       0.00000000      -396.514282       0.00000000    
           2

 O   19.2489109       0.00000000       0.00000000      -396.652771    
 C   0.00000000       0.00000000      -396.652771       0.00000000    
           2

 O   19.3528919       0.00000000       0.00000000      -396.791260    
 C   0.00000000       0.00000000      -396.791260       0.00000000    
           2

 O   19.4568729       0.00000000       0.00000000      -396.929749    
 C   0.00000000       0.00000000      -396.929749       0.00000000    
           2

 O   19.5608540       0.00000000       0.00000000      -397.068237    
 C   0.00000000       0.00000000      -397.068237       0.00000000    
           2

 O   19.6648350       0.00000000       0.00000000      -397.206726    
 C   0.00000000       0.00000000      -397.206726       0.00000000    
           2

 O   19.7688160       0.00000000       0.00000000      -397.345215    
 C   0.00000000       0.00000000      -397.345215       0.00000000    
           2

 O   19.8727970       0.00000000       0.00000000      -397.483704    
 C   0.00000000       0.00000000      -397.483704       0.00000000    
           2

 O   19.9767780       0.00000000       0.00000000      -397.622192    
 C   0.00000000       0.00000000      -397.622192       0.00000000    
           2

 O   20.0807590       0.00000000       0.00000000      -397.760681    
 C   0.00000000       0.00000000      -397.760681       0.00000000    
           2

 O   20.1847401       0.00000000       0.00000000      -397.899170    
 C   0.00000000       0.00000000      -397.899170       0.00000000    
           2

 O   20.2887211       0.00000000       0.00000000      -398.037659    
 C   0.00000000       0.00000000      -398.037659       0.00000000    
           2

 O   20.3927021       0.00000000       0.00000000      -398.176147    
 C   0.00000000       0.00000000      -398.176147       0.00000000    
           2

 O   20.4966831       0.00000000       0.00000000      -398.314636    
 C   0.00000000       0.00000000      -398.314636       0.00000000    
           2

 O   20.6006641       0.00000000       0.00000000      -398.453125    
 C   0.00000000       0.00000000      -398.453125       0.00000000    
           2

 O   20.7046452       0.00000000       0.00000000      -398.591614    
 C   0.00000000       0.00000000      -398.591614       0.00000000    
           2

 O   20.8086262       0.00000000       0.00000000      -398.730103    
 C   0.00000000       0.00000000      -398.730103       0.00000000    
           2

 O   20.9126072       0.00000000       0.00000000      -398.868591    
 C   0.00000000       0.00000000      -398.868591       0.00000000    
           2

 O   21.0165882       0.00000000       0.00000000      -399.007080    
 C   0.00000000       0.00000000      -399.007080       0.00000000    
           2

 O   21.1205692       0.00000000       0.00000000      -399.145569    
 C   0.00000000       0.00000000      -399.145569       0.00000000    
           2

 O   21.2245502       0.00000000       0.00000000      -399.284058    
 C   0.00000000       0.00000000      -399.284058       0.00000000    
           2

 O   21.3285313       0.00000000       0.00000000      -399.422546    
 C   0.00000000       0.00000000      -399.422546       0.00000000    
           2

 O   21.4325123       0.00000000       0.00000000      -399.561035    
 C   0.00000000       0.00000000      -399.561035       0.00000000    
           2

 O   21.5364933       0.00000000       0.00000000      -399.699524    
 C   0.00000000       0.00000000      -399.699524       0.00000000    
           2

 O   21.6404743       0.00000000       0.00000000      -399.838013    
 C   0.00000000       0.00000000      -399.838013       0.00000000    
           2

 O   21.7444553       0.00000000       0.00000000      -399.976501    
 C   0.00000000       0.00000000      -399.976501       0.00000000    
           2

 O   21.8484364       0.00000000       0.00000000      -400.114990    
 C   0.00000000       0.00000000      -400.114990       0.00000000    
           2

 O   21.9524174       0.00000000       0.00000000      -400.253479    
 C   0.00000000       0.00000000      -400.253479       0.00000000    
           2

 O   22.0563984       0.00000000       0.00000000      -400.391968    
 C   0.00000000       0.00000000      -400.391968       0.00000000    
           2

 O   22.1603794       0.00000000       0.00000000      -400.530457    
 C   0.00000000       0.00000000      -400.530457       0.00000000    
           2

 O   22.2643604       0.00000000       0.00000000      -400.668945    
 C   0.00000000       0.00000000      -400.668945       0.00000000    
           2

 O   22.3683414       0.00000000       0.00000000      -400.807434    
 C   0.00000000       0.00000000      -400.807434       0.00000000    
           2

 O   22.4723225       0.00000000       0.00000000      -400.945923    
 C   0.00000000       0.00000000      -400.945923       0.00000000    
           2

 O   22.5763035       0.00000000       0.00000000      -401.084412    
 C   0.00000000       0.00000000      -401.084412       0.00000000    
           2

 O   22.6802845       0.00000000       0.00000000      -401.222900    
 C   0.00000000       0.00000000      -401.222900       0.00000000    
           2

 O   22.7842655       0.00000000       0.00000000      -401.361389    
 C   0.00000000       0.00000000      -401.361389       0.00000000    
           2

 O   22.8882465       0.00000000       0.00000000      -401.499878    
 C   0.00000000       0.00000000      -401.499878       0.00000000    
           2

 O   22.9922276       0.00000000       0.00000000      -401.638367    
 C   0.00000000       0.00000000      -401.638367       0.00000000    
           2

 O   23.0962086       0.00000000       0.00000000      -401.776855    
 C   0.00000000       0.00000000      -401.776855       0.00000000    
           2

 O   23.2001896       0.00000000       0.00000000      -401.915344    
 C   0.00000000       0.00000000      -401.915344       0.00000000    
           2

 O   23.3041706       0.00000000       0.00000000      -402.053833    
 C   0.00000000       0.00000000      -402.053833       0.00000000    
           2

 O   23.4081516       0.00000000       0.00000000      -402.192322    
 C   0.00000000       0.00000000      -402.192322       0.00000000    
           2

 O   23.5121326       0.00000000       0.00000000      -402.330811    
 C   0.00000000       0.00000000      -402.330811       0.00000000    
           2

 O   23.6161137       0.00000000       0.00000000      -402.469299    
 C   0.00000000       0.00000000      -402.469299       0.00000000    
           2

 O   23.7200947       0.00000000       0.00000000      -402.607788    
 C   0.00000000       0.00000000      -402.607788       0.00000000    
           2

 O   23.8240757       0.00000000       0.00000000      -402.746277    
 C   0.00000000       0.00000000      -402.746277       0.00000000    
           2

 O   23.9280567       0.00000000       0.00000000      -402.884766    
 C   0.00000000       0.00000000      -402.884766       0.00000000    
           2

 O   24.0320377       0.00000000       0.00000000      -403.023254    
 C   0.00000000       0.00000000      -403.023254       0.00000000    
           2

 O   24.1360188       0.00000000       0.00000000      -403.161743    
 C   0.00000000       0.00000000      -403.161743       0.00000000    
           2

 O   24.2399998       0.00000000       0.00000000      -403.300232    
 C   0.00000000       0.00000000      -403.300232       0.00000000    
           2

 O   24.3439808       0.00000000       0.00000000      -403.438721    
 C   0.00000000       0.00000000      -403.438721       0.00000000    
           2

 O   24.4479618       0.00000000       0.00000000      -403.577209    
 C   0.00000000       0.00000000      -403.577209       0.00000000    
           2

 O   24.5519428       0.00000000       0.00000000      -403.715698    
 C   0.00000000       0.00000000      -403.715698       0.00000000    
           2

 O   24.6559238       0.00000000       0.00000000      -403.854187    
 C   0.00000000       0.00000000      -403.854187       0.00000000    
           2

 O   24.7599049       0.00000000       0.00000000      -403.992676    
 C   0.00000000       0.00000000      -403.992676       0.00000000    
           2

 O   24.8638859       0.00000000       0.00000000      -404.131165    
 C   0.00000000       0.00000000      -404.131165       0.00000000    
           2

 O   24.9678669       0.00000000       0.00000000      -404.269653    
 C   0.00000000       0.00000000      -404.269653       0.00000000    
           2

 O   25.0718479       0.00000000       0.00000000      -404.408142    
 C   0.00000000       0.00000000      -404.408142       0.00000000    
           2

 O   25.1758289       0.00000000       0.00000000      -404.546631    
 C   0.00000000       0.00000000      -404.546631       0.00000000    
           2

 O   25.2798100       0.00000000       0.00000000      -404.685120    
 C   0.00000000       0.00000000      -404.685120       0.00000000    
           2

 O   25.3837910       0.00000000       0.00000000      -404.823608    
 C   0.00000000       0.00000000      -404.823608       0.00000000    
           2

 O   25.4877720       0.00000000       0.00000000      -404.962097    
 C   0.00000000       0.00000000      -404.962097       0.00000000    
           2

 O   25.5917530       0.00000000       0.00000000      -405.100586    
 C   0.00000000       0.00000000      -405.100586       0.00000000    
           2

 O   25.6957340       0.00000000       0.00000000      -405.239075    
 C   0.00000000       0.00000000      -405.239075       0.00000000    
           2

 O   25.7997150       0.00000000       0.00000000      -405.377563    
 C   0.00000000       0.00000000      -405.377563       0.00000000    
           2

 O   25.9036961       0.00000000       0.00000000      -405.516052    
 C   0.00000000       0.00000000      -405.516052       0.00000000    
           2

 O   26.0076771       0.00000000       0.00000000      -405.654541    
 C   0.00000000       0.00000000      -405.654541       0.00000000    
           2

 O   26.1116581       0.00000000       0.00000000      -405.793030    
 C   0.00000000       0.00000000      -405.793030       0.00000000    
           2

 O   26.2156391       0.00000000       0.00000000      -405.931519    
 C   0.00000000       0.00000000      -405.931519       0.00000000    
           2

 O   26.3196201       0.00000000       0.00000000      -406.070007    
 C   0.00000000       0.00000000      -406.070007       0.00000000    
           2

 O   26.4236012       0.00000000       0.00000000      -406.208496    
 C   0.00000000       0.00000000      -406.208496       0.00000000    
           2

 O   26.5275822       0.00000000       0.00000000      -406.346985    
 C   0.00000000       0.00000000      -406.346985       0.00000000    
           2

 O   26.6315632       0.00000000       0.00000000      -406.485474    
 C   0.00000000       0.00000000      -406.485474       0.00000000    
           2

 O   26.7355442       0.00000000       0.00000000      -406.623962    
 C   0.00000000       0.00000000      -406.623962       0.00000000    
           2

 O   26.8395252       0.00000000       0.00000000      -406.762451    
 C   0.00000000       0.00000000      -406.762451       0.00000000    
           2

 O   26.9435062       0.00000000       0.00000000      -406.900940    
 C   0.00000000       0.00000000      -406.900940       0.00000000    
           2

 O   27.0474873       0.00000000       0.00000000      -407.039429    
 C   0.00000000       0.00000000      -407.039429       0.00000000    
           2

 O   27.1514683       0.00000000       0.00000000      -407.177917    
 C   0.00000000       0.00000000      -407.177917       0.00000000    
           2

 O   27.2554493       0.00000000       0.00000000      -407.316406    
 C   0.00000000       0.00000000      -407.316406       0.00000000    
           2

 O   27.3594303       0.00000000       0.00000000      -407.454895    
 C   0.00000000       0.00000000      -407.454895       0.00000000    
           2

 O   27.4634113       0.00000000       0.00000000      -407.593384    
 C   0.00000000       0.00000000      -407.593384       0.00000000    
           2

 O   27.5673923       0.00000000       0.00000000      -407.731873    
 C   0.00000000       0.00000000      -407.731873       0.00000000    
           2

 O   27.6713734       0.00000000       0.00000000      -407.870361    
 C   0.00000000       0.00000000      -407.870361       0.00000000    
           2

 O   27.7753544       0.00000000       0.00000000      -408.008850    
 C   0.00000000       0.00000000      -408.008850       0.00000000    
           2

 O   27.8793354       0.00000000       0.00000000      -408.147339    
 C   0.00000000       0.00000000      -408.147339       0.00000000    
           2

 O   27.9833164       0.00000000       0.00000000      -408.285828    
 C   0.00000000       0.00000000      -408.285828       0.00000000    
           2

 O   28.0872974       0.00000000       0.00000000      -408.424316    
 C   0.00000000       0.00000000      -408.424316       0.00000000    
           2

 O   28.1912785       0.00000000       0.00000000      -408.562805    
 C   0.00000000       0.00000000      -408.562805       0.00000000    
           2

 O   28.2952595       0.00000000       0.00000000      -408.701294    
 C   0.00000000       0.00000000      -408.701294       0.00000000    
