           2

 O   2.27198529       0.00000000       0.00000000      0.158847764    
 C   0.00000000       0.00000000      0.158847764       0.00000000    
           2

 O   2.25694084       0.00000000       0.00000000      0.178886652    
 C   0.00000000       0.00000000      0.178886652       0.00000000    
           2

 O   2.25871992       0.00000000       0.00000000      0.176516891    
 C   0.00000000       0.00000000      0.176516891       0.00000000    
           2

 O   2.27684569       0.00000000       0.00000000      0.152373314    
 C   0.00000000       0.00000000      0.152373314       0.00000000    
           2

 O   2.30678010       0.00000000       0.00000000      0.112500697    
 C   0.00000000       0.00000000      0.112500697       0.00000000    
           2

 O   2.34218144       0.00000000       0.00000000       6.53460920E-02
 C   0.00000000       0.00000000       6.53460920E-02   0.00000000    
           2

 O   2.37712932       0.00000000       0.00000000       1.87957510E-02
 C   0.00000000       0.00000000       1.87957510E-02   0.00000000    
           2

 O   2.40715837       0.00000000       0.00000000      -2.12027468E-02
 C   0.00000000       0.00000000      -2.12027468E-02   0.00000000    
           2

 O   2.42932773       0.00000000       0.00000000      -5.07322811E-02
 C   0.00000000       0.00000000      -5.07322811E-02   0.00000000    
           2

 O   2.44191122       0.00000000       0.00000000      -6.74934909E-02
 C   0.00000000       0.00000000      -6.74934909E-02   0.00000000    
           2

 O   2.44407582       0.00000000       0.00000000      -7.03769624E-02
 C   0.00000000       0.00000000      -7.03769624E-02   0.00000000    
           2

 O   2.43568850       0.00000000       0.00000000      -5.92050776E-02
 C   0.00000000       0.00000000      -5.92050776E-02   0.00000000    
           2

 O   2.41728163       0.00000000       0.00000000      -3.46873887E-02
 C   0.00000000       0.00000000      -3.46873887E-02   0.00000000    
           2

 O   2.39018393       0.00000000       0.00000000       1.40664354E-03
 C   0.00000000       0.00000000       1.40664354E-03   0.00000000    
           2

 O   2.35679674       0.00000000       0.00000000       4.58781607E-02
 C   0.00000000       0.00000000       4.58781607E-02   0.00000000    
           2

 O   2.32093787       0.00000000       0.00000000       9.36418921E-02
 C   0.00000000       0.00000000       9.36418921E-02   0.00000000    
           2

 O   2.28799009       0.00000000       0.00000000      0.137528017    
 C   0.00000000       0.00000000      0.137528017       0.00000000    
           2

 O   2.26433134       0.00000000       0.00000000      0.169041097    
 C   0.00000000       0.00000000      0.169041097       0.00000000    
           2

 O   2.25555348       0.00000000       0.00000000      0.180733144    
 C   0.00000000       0.00000000      0.180733144       0.00000000    
           2

 O   2.26397443       0.00000000       0.00000000      0.169516325    
 C   0.00000000       0.00000000      0.169516325       0.00000000    
           2

 O   2.28736782       0.00000000       0.00000000      0.138356537    
 C   0.00000000       0.00000000      0.138356537       0.00000000    
           2

 O   2.32018566       0.00000000       0.00000000       9.46432054E-02
 C   0.00000000       0.00000000       9.46432054E-02   0.00000000    
           2

 O   2.35604382       0.00000000       0.00000000       4.68802378E-02
 C   0.00000000       0.00000000       4.68802378E-02   0.00000000    
           2

 O   2.38952875       0.00000000       0.00000000       2.27840245E-03
 C   0.00000000       0.00000000       2.27840245E-03   0.00000000    
           2

 O   2.41678953       0.00000000       0.00000000      -3.40328440E-02
 C   0.00000000       0.00000000      -3.40328440E-02   0.00000000    
           2

 O   2.43539786       0.00000000       0.00000000      -5.88192455E-02
 C   0.00000000       0.00000000      -5.88192455E-02   0.00000000    
           2

 O   2.44400597       0.00000000       0.00000000      -7.02854246E-02
 C   0.00000000       0.00000000      -7.02854246E-02   0.00000000    
           2

 O   2.44206619       0.00000000       0.00000000      -6.77018687E-02
 C   0.00000000       0.00000000      -6.77018687E-02   0.00000000    
           2

 O   2.42969799       0.00000000       0.00000000      -5.12276664E-02
 C   0.00000000       0.00000000      -5.12276664E-02   0.00000000    
           2

 O   2.40771794       0.00000000       0.00000000      -2.19504815E-02
 C   0.00000000       0.00000000      -2.19504815E-02   0.00000000    
           2

 O   2.37783027       0.00000000       0.00000000       1.78596247E-02
 C   0.00000000       0.00000000       1.78596247E-02   0.00000000    
           2

 O   2.34294629       0.00000000       0.00000000       6.43248409E-02
 C   0.00000000       0.00000000       6.43248409E-02   0.00000000    
           2

 O   2.30749702       0.00000000       0.00000000      0.111542821    
 C   0.00000000       0.00000000      0.111542821       0.00000000    
           2

 O   2.27737880       0.00000000       0.00000000      0.151660115    
 C   0.00000000       0.00000000      0.151660115       0.00000000    
           2

 O   2.25894380       0.00000000       0.00000000      0.176215351    
 C   0.00000000       0.00000000      0.176215351       0.00000000    
           2

 O   2.25679564       0.00000000       0.00000000      0.179076627    
 C   0.00000000       0.00000000      0.179076627       0.00000000    
           2

 O   2.27150965       0.00000000       0.00000000      0.159477621    
 C   0.00000000       0.00000000      0.159477621       0.00000000    
           2

 O   2.29930949       0.00000000       0.00000000      0.122448370    
 C   0.00000000       0.00000000      0.122448370       0.00000000    
           2

 O   2.33403444       0.00000000       0.00000000       7.61948824E-02
 C   0.00000000       0.00000000       7.61948824E-02   0.00000000    
           2

 O   2.36953282       0.00000000       0.00000000       2.89112814E-02
 C   0.00000000       0.00000000       2.89112814E-02   0.00000000    
           2

 O   2.40098000       0.00000000       0.00000000      -1.29763223E-02
 C   0.00000000       0.00000000      -1.29763223E-02   0.00000000    
           2

 O   2.42511249       0.00000000       0.00000000      -4.51208875E-02
 C   0.00000000       0.00000000      -4.51208875E-02   0.00000000    
           2

 O   2.43996096       0.00000000       0.00000000      -6.48991317E-02
 C   0.00000000       0.00000000      -6.48991317E-02   0.00000000    
           2

 O   2.44451308       0.00000000       0.00000000      -7.09628016E-02
 C   0.00000000       0.00000000      -7.09628016E-02   0.00000000    
           2

 O   2.43848658       0.00000000       0.00000000      -6.29355609E-02
 C   0.00000000       0.00000000      -6.29355609E-02   0.00000000    
           2

 O   2.42225790       0.00000000       0.00000000      -4.13192362E-02
 C   0.00000000       0.00000000      -4.13192362E-02   0.00000000    
           2

 O   2.39695644       0.00000000       0.00000000      -7.61795789E-03
 C   0.00000000       0.00000000      -7.61795789E-03   0.00000000    
           2

 O   2.36471128       0.00000000       0.00000000       3.53322141E-02
 C   0.00000000       0.00000000       3.53322141E-02   0.00000000    
           2

 O   2.32899427       0.00000000       0.00000000       8.29070956E-02
 C   0.00000000       0.00000000       8.29070956E-02   0.00000000    
           2

 O   2.29484844       0.00000000       0.00000000      0.128389090    
 C   0.00000000       0.00000000      0.128389090       0.00000000    
           2

 O   2.26853657       0.00000000       0.00000000      0.163436353    
 C   0.00000000       0.00000000      0.163436353       0.00000000    
           2

 O   2.25604272       0.00000000       0.00000000      0.180077821    
 C   0.00000000       0.00000000      0.180077821       0.00000000    
           2

 O   2.26061463       0.00000000       0.00000000      0.173988014    
 C   0.00000000       0.00000000      0.173988014       0.00000000    
           2

 O   2.28103137       0.00000000       0.00000000      0.146792859    
 C   0.00000000       0.00000000      0.146792859       0.00000000    
           2

 O   2.31228685       0.00000000       0.00000000      0.105160579    
 C   0.00000000       0.00000000      0.105160579       0.00000000    
           2

 O   2.34798336       0.00000000       0.00000000       5.76130264E-02
 C   0.00000000       0.00000000       5.76130264E-02   0.00000000    
           2

 O   2.38239741       0.00000000       0.00000000       1.17737055E-02
 C   0.00000000       0.00000000       1.17737055E-02   0.00000000    
           2

 O   2.41132140       0.00000000       0.00000000      -2.67528817E-02
 C   0.00000000       0.00000000      -2.67528817E-02   0.00000000    
           2

 O   2.43203449       0.00000000       0.00000000      -5.43427654E-02
 C   0.00000000       0.00000000      -5.43427654E-02   0.00000000    
           2

 O   2.44297385       0.00000000       0.00000000      -6.89141303E-02
 C   0.00000000       0.00000000      -6.89141303E-02   0.00000000    
           2

 O   2.44342852       0.00000000       0.00000000      -6.95199147E-02
 C   0.00000000       0.00000000      -6.95199147E-02   0.00000000    
           2

 O   2.43337059       0.00000000       0.00000000      -5.61228693E-02
 C   0.00000000       0.00000000      -5.61228693E-02   0.00000000    
           2

 O   2.41344810       0.00000000       0.00000000      -2.95862332E-02
 C   0.00000000       0.00000000      -2.95862332E-02   0.00000000    
           2

 O   2.38514042       0.00000000       0.00000000       8.11937079E-03
 C   0.00000000       0.00000000       8.11937079E-03   0.00000000    
           2

 O   2.35105491       0.00000000       0.00000000       5.35208583E-02
 C   0.00000000       0.00000000       5.35208583E-02   0.00000000    
           2

 O   2.31526303       0.00000000       0.00000000      0.101195186    
 C   0.00000000       0.00000000      0.101195186       0.00000000    
           2

 O   2.28337479       0.00000000       0.00000000      0.143670171    
 C   0.00000000       0.00000000      0.143670171       0.00000000    
           2

 O   2.26179457       0.00000000       0.00000000      0.172414780    
 C   0.00000000       0.00000000      0.172414780       0.00000000    
           2

 O   2.25575018       0.00000000       0.00000000      0.180465728    
 C   0.00000000       0.00000000      0.180465728       0.00000000    
           2

 O   2.26685071       0.00000000       0.00000000      0.165679902    
 C   0.00000000       0.00000000      0.165679902       0.00000000    
           2

 O   2.29219127       0.00000000       0.00000000      0.131926313    
 C   0.00000000       0.00000000      0.131926313       0.00000000    
           2

 O   2.32592082       0.00000000       0.00000000       8.69986266E-02
 C   0.00000000       0.00000000       8.69986266E-02   0.00000000    
           2

 O   2.36172318       0.00000000       0.00000000       3.93101461E-02
 C   0.00000000       0.00000000       3.93101461E-02   0.00000000    
           2

 O   2.39442348       0.00000000       0.00000000      -4.24665213E-03
 C   0.00000000       0.00000000      -4.24665213E-03   0.00000000    
           2

 O   2.42042041       0.00000000       0.00000000      -3.88743840E-02
 C   0.00000000       0.00000000      -3.88743840E-02   0.00000000    
           2

 O   2.43748331       0.00000000       0.00000000      -6.16021082E-02
 C   0.00000000       0.00000000      -6.16021082E-02   0.00000000    
           2

 O   2.44440889       0.00000000       0.00000000      -7.08270743E-02
 C   0.00000000       0.00000000      -7.08270743E-02   0.00000000    
           2

 O   2.44076204       0.00000000       0.00000000      -6.59694597E-02
 C   0.00000000       0.00000000      -6.59694597E-02   0.00000000    
           2

 O   2.42676806       0.00000000       0.00000000      -4.73297089E-02
 C   0.00000000       0.00000000      -4.73297089E-02   0.00000000    
           2

 O   2.40336990       0.00000000       0.00000000      -1.61636658E-02
 C   0.00000000       0.00000000      -1.61636658E-02   0.00000000    
           2

 O   2.37244272       0.00000000       0.00000000       2.50311196E-02
 C   0.00000000       0.00000000       2.50311196E-02   0.00000000    
           2

 O   2.33712530       0.00000000       0.00000000       7.20734596E-02
 C   0.00000000       0.00000000       7.20734596E-02   0.00000000    
           2

 O   2.30210662       0.00000000       0.00000000      0.118718140    
 C   0.00000000       0.00000000      0.118718140       0.00000000    
           2

 O   2.27345729       0.00000000       0.00000000      0.156878695    
 C   0.00000000       0.00000000      0.156878695       0.00000000    
           2

 O   2.25742149       0.00000000       0.00000000      0.178238064    
 C   0.00000000       0.00000000      0.178238064       0.00000000    
           2

 O   2.25807881       0.00000000       0.00000000      0.177362323    
 C   0.00000000       0.00000000      0.177362323       0.00000000    
           2

 O   2.27525306       0.00000000       0.00000000      0.154486224    
 C   0.00000000       0.00000000      0.154486224       0.00000000    
           2

 O   2.30461144       0.00000000       0.00000000      0.115380943    
 C   0.00000000       0.00000000      0.115380943       0.00000000    
           2

 O   2.33985138       0.00000000       0.00000000       6.84414059E-02
 C   0.00000000       0.00000000       6.84414059E-02   0.00000000    
           2

 O   2.37498045       0.00000000       0.00000000       2.16496177E-02
 C   0.00000000       0.00000000       2.16496177E-02   0.00000000    
           2

 O   2.40543032       0.00000000       0.00000000      -1.89095922E-02
 C   0.00000000       0.00000000      -1.89095922E-02   0.00000000    
           2

 O   2.42816973       0.00000000       0.00000000      -4.91985604E-02
 C   0.00000000       0.00000000      -4.91985604E-02   0.00000000    
           2

 O   2.44140482       0.00000000       0.00000000      -6.68277517E-02
 C   0.00000000       0.00000000      -6.68277517E-02   0.00000000    
           2

 O   2.44425249       0.00000000       0.00000000      -7.06209913E-02
 C   0.00000000       0.00000000      -7.06209913E-02   0.00000000    
           2

 O   2.43653703       0.00000000       0.00000000      -6.03442378E-02
 C   0.00000000       0.00000000      -6.03442378E-02   0.00000000    
           2

 O   2.41874599       0.00000000       0.00000000      -3.66469212E-02
 C   0.00000000       0.00000000      -3.66469212E-02   0.00000000    
           2

 O   2.39214969       0.00000000       0.00000000      -1.22083351E-03
 C   0.00000000       0.00000000      -1.22083351E-03   0.00000000    
           2

 O   2.35906982       0.00000000       0.00000000       4.28413115E-02
 C   0.00000000       0.00000000       4.28413115E-02   0.00000000    
           2

 O   2.32322407       0.00000000       0.00000000       9.05875415E-02
 C   0.00000000       0.00000000       9.05875415E-02   0.00000000    
           2

 O   2.28990030       0.00000000       0.00000000      0.134974316    
 C   0.00000000       0.00000000      0.134974316       0.00000000    
           2

 O   2.26545262       0.00000000       0.00000000      0.167538434    
 C   0.00000000       0.00000000      0.167538434       0.00000000    
           2

 O   2.25559831       0.00000000       0.00000000      0.180664092    
 C   0.00000000       0.00000000      0.180664092       0.00000000    
           2

 O   2.26292968       0.00000000       0.00000000      0.170898601    
 C   0.00000000       0.00000000      0.170898601       0.00000000    
           2

 O   2.28550172       0.00000000       0.00000000      0.140832752    
 C   0.00000000       0.00000000      0.140832752       0.00000000    
           2

 O   2.31790757       0.00000000       0.00000000       9.76683944E-02
 C   0.00000000       0.00000000       9.76683944E-02   0.00000000    
           2

 O   2.35374856       0.00000000       0.00000000       4.99282070E-02
 C   0.00000000       0.00000000       4.99282070E-02   0.00000000    
           2

 O   2.38751960       0.00000000       0.00000000       4.94532287E-03
 C   0.00000000       0.00000000       4.94532287E-03   0.00000000    
           2

 O   2.41526842       0.00000000       0.00000000      -3.20161171E-02
 C   0.00000000       0.00000000      -3.20161171E-02   0.00000000    
           2

 O   2.43448544       0.00000000       0.00000000      -5.76130524E-02
 C   0.00000000       0.00000000      -5.76130524E-02   0.00000000    
           2

 O   2.44376254       0.00000000       0.00000000      -6.99703470E-02
 C   0.00000000       0.00000000      -6.99703470E-02   0.00000000    
           2

 O   2.44250655       0.00000000       0.00000000      -6.82973787E-02
 C   0.00000000       0.00000000      -6.82973787E-02   0.00000000    
           2

 O   2.43079448       0.00000000       0.00000000      -5.26970625E-02
 C   0.00000000       0.00000000      -5.26970625E-02   0.00000000    
           2

 O   2.40939379       0.00000000       0.00000000      -2.41917334E-02
 C   0.00000000       0.00000000      -2.41917334E-02   0.00000000    
           2

 O   2.37994313       0.00000000       0.00000000       1.50362737E-02
 C   0.00000000       0.00000000       1.50362737E-02   0.00000000    
           2

 O   2.34526491       0.00000000       0.00000000       6.12271838E-02
 C   0.00000000       0.00000000       6.12271838E-02   0.00000000    
           2

 O   2.30968761       0.00000000       0.00000000      0.108615950    
 C   0.00000000       0.00000000      0.108615950       0.00000000    
           2

 O   2.27902961       0.00000000       0.00000000      0.149452150    
 C   0.00000000       0.00000000      0.149452150       0.00000000    
           2

 O   2.25966978       0.00000000       0.00000000      0.175239339    
 C   0.00000000       0.00000000      0.175239339       0.00000000    
           2

 O   2.25640321       0.00000000       0.00000000      0.179590404    
 C   0.00000000       0.00000000      0.179590404       0.00000000    
           2

 O   2.27010369       0.00000000       0.00000000      0.161341339    
 C   0.00000000       0.00000000      0.161341339       0.00000000    
           2

 O   2.29723358       0.00000000       0.00000000      0.125204355    
 C   0.00000000       0.00000000      0.125204355       0.00000000    
           2

 O   2.33170724       0.00000000       0.00000000       7.92856514E-02
 C   0.00000000       0.00000000       7.92856514E-02   0.00000000    
           2

 O   2.36731839       0.00000000       0.00000000       3.18518803E-02
 C   0.00000000       0.00000000       3.18518803E-02   0.00000000    
           2

 O   2.39914107       0.00000000       0.00000000      -1.05358474E-02
 C   0.00000000       0.00000000      -1.05358474E-02   0.00000000    
           2

 O   2.42381668       0.00000000       0.00000000      -4.34038080E-02
 C   0.00000000       0.00000000      -4.34038080E-02   0.00000000    
           2

 O   2.43930316       0.00000000       0.00000000      -6.40318841E-02
 C   0.00000000       0.00000000      -6.40318841E-02   0.00000000    
           2

 O   2.44453502       0.00000000       0.00000000      -7.10008368E-02
 C   0.00000000       0.00000000      -7.10008368E-02   0.00000000    
           2

 O   2.43918657       0.00000000       0.00000000      -6.38768077E-02
 C   0.00000000       0.00000000      -6.38768077E-02   0.00000000    
           2

 O   2.42359090       0.00000000       0.00000000      -4.31035608E-02
 C   0.00000000       0.00000000      -4.31035608E-02   0.00000000    
           2

 O   2.39882278       0.00000000       0.00000000      -1.01126656E-02
 C   0.00000000       0.00000000      -1.01126656E-02   0.00000000    
           2

 O   2.36693692       0.00000000       0.00000000       3.23589556E-02
 C   0.00000000       0.00000000       3.23589556E-02   0.00000000    
           2

 O   2.33130860       0.00000000       0.00000000       7.98156708E-02
 C   0.00000000       0.00000000       7.98156708E-02   0.00000000    
           2

 O   2.29688072       0.00000000       0.00000000      0.125673354    
 C   0.00000000       0.00000000      0.125673354       0.00000000    
           2

 O   2.26986837       0.00000000       0.00000000      0.161653653    
 C   0.00000000       0.00000000      0.161653653       0.00000000    
           2

 O   2.25634313       0.00000000       0.00000000      0.179668948    
 C   0.00000000       0.00000000      0.179668948       0.00000000    
           2

 O   2.25980115       0.00000000       0.00000000      0.175062716    
 C   0.00000000       0.00000000      0.175062716       0.00000000    
           2

 O   2.27931762       0.00000000       0.00000000      0.149066895    
 C   0.00000000       0.00000000      0.149066895       0.00000000    
           2

 O   2.31006527       0.00000000       0.00000000      0.108110979    
 C   0.00000000       0.00000000      0.108110979       0.00000000    
           2

 O   2.34566212       0.00000000       0.00000000       6.06961362E-02
 C   0.00000000       0.00000000       6.06961362E-02   0.00000000    
           2

 O   2.38030291       0.00000000       0.00000000       1.45546235E-02
 C   0.00000000       0.00000000       1.45546235E-02   0.00000000    
           2

 O   2.40967727       0.00000000       0.00000000      -2.45720446E-02
 C   0.00000000       0.00000000      -2.45720446E-02   0.00000000    
           2

 O   2.43097758       0.00000000       0.00000000      -5.29441461E-02
 C   0.00000000       0.00000000      -5.29441461E-02   0.00000000    
           2

 O   2.44257665       0.00000000       0.00000000      -6.83942214E-02
 C   0.00000000       0.00000000      -6.83942214E-02   0.00000000    
           2

 O   2.44371533       0.00000000       0.00000000      -6.99110478E-02
 C   0.00000000       0.00000000      -6.99110478E-02   0.00000000    
           2

 O   2.43432355       0.00000000       0.00000000      -5.74013367E-02
 C   0.00000000       0.00000000      -5.74013367E-02   0.00000000    
           2

 O   2.41500282       0.00000000       0.00000000      -3.16662677E-02
 C   0.00000000       0.00000000      -3.16662677E-02   0.00000000    
           2

 O   2.38717127       0.00000000       0.00000000       5.40519133E-03
 C   0.00000000       0.00000000       5.40519133E-03   0.00000000    
           2

 O   2.35335279       0.00000000       0.00000000       5.04511073E-02
 C   0.00000000       0.00000000       5.04511073E-02   0.00000000    
           2

 O   2.31751680       0.00000000       0.00000000       9.81841683E-02
 C   0.00000000       0.00000000       9.81841683E-02   0.00000000    
           2

 O   2.28518438       0.00000000       0.00000000      0.141250566    
 C   0.00000000       0.00000000      0.141250566       0.00000000    
           2

 O   2.26275563       0.00000000       0.00000000      0.171125457    
 C   0.00000000       0.00000000      0.171125457       0.00000000    
           2

 O   2.25561190       0.00000000       0.00000000      0.180640742    
 C   0.00000000       0.00000000      0.180640742       0.00000000    
           2

 O   2.26564956       0.00000000       0.00000000      0.167270616    
 C   0.00000000       0.00000000      0.167270616       0.00000000    
           2

 O   2.29023004       0.00000000       0.00000000      0.134529471    
 C   0.00000000       0.00000000      0.134529471       0.00000000    
           2

 O   2.32361531       0.00000000       0.00000000       9.00604129E-02
 C   0.00000000       0.00000000       9.00604129E-02   0.00000000    
           2

 O   2.35945654       0.00000000       0.00000000       4.23201174E-02
 C   0.00000000       0.00000000       4.23201174E-02   0.00000000    
           2

 O   2.39248204       0.00000000       0.00000000      -1.66980550E-03
 C   0.00000000       0.00000000      -1.66980550E-03   0.00000000    
           2

 O   2.41899133       0.00000000       0.00000000      -3.69801186E-02
 C   0.00000000       0.00000000      -3.69801186E-02   0.00000000    
           2

 O   2.43667603       0.00000000       0.00000000      -6.05361089E-02
 C   0.00000000       0.00000000      -6.05361089E-02   0.00000000    
           2

 O   2.44427586       0.00000000       0.00000000      -7.06591457E-02
 C   0.00000000       0.00000000      -7.06591457E-02   0.00000000    
           2

 O   2.44131088       0.00000000       0.00000000      -6.67100474E-02
 C   0.00000000       0.00000000      -6.67100474E-02   0.00000000    
           2

 O   2.42796421       0.00000000       0.00000000      -4.89325672E-02
 C   0.00000000       0.00000000      -4.89325672E-02   0.00000000    
           2

 O   2.40512753       0.00000000       0.00000000      -1.85144544E-02
 C   0.00000000       0.00000000      -1.85144544E-02   0.00000000    
           2

 O   2.37460661       0.00000000       0.00000000       2.21390948E-02
 C   0.00000000       0.00000000       2.21390948E-02   0.00000000    
           2

 O   2.33944845       0.00000000       0.00000000       6.89695626E-02
 C   0.00000000       0.00000000       6.89695626E-02   0.00000000    
           2

 O   2.30423880       0.00000000       0.00000000      0.115868628    
 C   0.00000000       0.00000000      0.115868628       0.00000000    
           2

 O   2.27498198       0.00000000       0.00000000      0.154838488    
 C   0.00000000       0.00000000      0.154838488       0.00000000    
           2

 O   2.25797272       0.00000000       0.00000000      0.177494466    
 C   0.00000000       0.00000000      0.177494466       0.00000000    
           2

 O   2.25750780       0.00000000       0.00000000      0.178113639    
 C   0.00000000       0.00000000      0.178113639       0.00000000    
           2

 O   2.27371168       0.00000000       0.00000000      0.156530038    
 C   0.00000000       0.00000000      0.156530038       0.00000000    
           2

 O   2.30246711       0.00000000       0.00000000      0.118228033    
 C   0.00000000       0.00000000      0.118228033       0.00000000    
           2

 O   2.33752036       0.00000000       0.00000000       7.15372711E-02
 C   0.00000000       0.00000000       7.15372711E-02   0.00000000    
           2

 O   2.37281156       0.00000000       0.00000000       2.45294496E-02
 C   0.00000000       0.00000000       2.45294496E-02   0.00000000    
           2

 O   2.40366983       0.00000000       0.00000000      -1.65737048E-02
 C   0.00000000       0.00000000      -1.65737048E-02   0.00000000    
           2

 O   2.42697191       0.00000000       0.00000000      -4.76121679E-02
 C   0.00000000       0.00000000      -4.76121679E-02   0.00000000    
           2

 O   2.44085503       0.00000000       0.00000000      -6.61043823E-02
 C   0.00000000       0.00000000      -6.61043823E-02   0.00000000    
           2

 O   2.44438481       0.00000000       0.00000000      -7.08062649E-02
 C   0.00000000       0.00000000      -7.08062649E-02   0.00000000    
           2

 O   2.43734336       0.00000000       0.00000000      -6.14271238E-02
 C   0.00000000       0.00000000      -6.14271238E-02   0.00000000    
           2

 O   2.42017341       0.00000000       0.00000000      -3.85569185E-02
 C   0.00000000       0.00000000      -3.85569185E-02   0.00000000    
           2

 O   2.39408803       0.00000000       0.00000000      -3.81132215E-03
 C   0.00000000       0.00000000      -3.81132215E-03   0.00000000    
           2

 O   2.36133075       0.00000000       0.00000000       3.98210734E-02
 C   0.00000000       0.00000000       3.98210734E-02   0.00000000    
           2

 O   2.32552028       0.00000000       0.00000000       8.75203535E-02
 C   0.00000000       0.00000000       8.75203535E-02   0.00000000    
           2

 O   2.29184771       0.00000000       0.00000000      0.132371753    
 C   0.00000000       0.00000000      0.132371753       0.00000000    
           2

 O   2.26663566       0.00000000       0.00000000      0.165953875    
 C   0.00000000       0.00000000      0.165953875       0.00000000    
           2

 O   2.25571656       0.00000000       0.00000000      0.180497855    
 C   0.00000000       0.00000000      0.180497855       0.00000000    
           2

 O   2.26195002       0.00000000       0.00000000      0.172194839    
 C   0.00000000       0.00000000      0.172194839       0.00000000    
           2

 O   2.28367734       0.00000000       0.00000000      0.143254027    
 C   0.00000000       0.00000000      0.143254027       0.00000000    
           2

 O   2.31564379       0.00000000       0.00000000      0.100674897    
 C   0.00000000       0.00000000      0.100674897       0.00000000    
           2

 O   2.35144472       0.00000000       0.00000000       5.29882163E-02
 C   0.00000000       0.00000000       5.29882163E-02   0.00000000    
           2

 O   2.38548541       0.00000000       0.00000000       7.64610246E-03
 C   0.00000000       0.00000000       7.64610246E-03   0.00000000    
           2

 O   2.41371202       0.00000000       0.00000000      -2.99517587E-02
 C   0.00000000       0.00000000      -2.99517587E-02   0.00000000    
           2

 O   2.43353176       0.00000000       0.00000000      -5.63514903E-02
 C   0.00000000       0.00000000      -5.63514903E-02   0.00000000    
           2

 O   2.44347548       0.00000000       0.00000000      -6.95965886E-02
 C   0.00000000       0.00000000      -6.95965886E-02   0.00000000    
           2

 O   2.44290328       0.00000000       0.00000000      -6.88345432E-02
 C   0.00000000       0.00000000      -6.88345432E-02   0.00000000    
           2

 O   2.43185043       0.00000000       0.00000000      -5.41121960E-02
 C   0.00000000       0.00000000      -5.41121960E-02   0.00000000    
           2

 O   2.41103601       0.00000000       0.00000000      -2.63875592E-02
 C   0.00000000       0.00000000      -2.63875592E-02   0.00000000    
           2

 O   2.38203382       0.00000000       0.00000000       1.22429710E-02
 C   0.00000000       0.00000000       1.22429710E-02   0.00000000    
           2

 O   2.34757948       0.00000000       0.00000000       5.81357181E-02
 C   0.00000000       0.00000000       5.81357181E-02   0.00000000    
           2

 O   2.31189823       0.00000000       0.00000000      0.105662689    
 C   0.00000000       0.00000000      0.105662689       0.00000000    
           2

 O   2.28072786       0.00000000       0.00000000      0.147181392    
 C   0.00000000       0.00000000      0.147181392       0.00000000    
           2

 O   2.26046395       0.00000000       0.00000000      0.174172640    
 C   0.00000000       0.00000000      0.174172640       0.00000000    
           2

 O   2.25608277       0.00000000       0.00000000      0.180008188    
 C   0.00000000       0.00000000      0.180008188       0.00000000    
           2

 O   2.26875448       0.00000000       0.00000000      0.163129449    
 C   0.00000000       0.00000000      0.163129449       0.00000000    
           2

 O   2.29518843       0.00000000       0.00000000      0.127919495    
 C   0.00000000       0.00000000      0.127919495       0.00000000    
           2

 O   2.32938457       0.00000000       0.00000000       8.23704302E-02
 C   0.00000000       0.00000000       8.23704302E-02   0.00000000    
           2

 O   2.36508799       0.00000000       0.00000000       3.48137654E-02
 C   0.00000000       0.00000000       3.48137654E-02   0.00000000    
           2

 O   2.39727235       0.00000000       0.00000000      -8.05568323E-03
 C   0.00000000       0.00000000      -8.05568323E-03   0.00000000    
           2

 O   2.42248273       0.00000000       0.00000000      -4.16359119E-02
 C   0.00000000       0.00000000      -4.16359119E-02   0.00000000    
           2

 O   2.43860292       0.00000000       0.00000000      -6.31080121E-02
 C   0.00000000       0.00000000      -6.31080121E-02   0.00000000    
           2

 O   2.44451308       0.00000000       0.00000000      -7.09804147E-02
 C   0.00000000       0.00000000      -7.09804147E-02   0.00000000    
           2

 O   2.43984389       0.00000000       0.00000000      -6.47613108E-02
 C   0.00000000       0.00000000      -6.47613108E-02   0.00000000    
           2

 O   2.42488551       0.00000000       0.00000000      -4.48368713E-02
 C   0.00000000       0.00000000      -4.48368713E-02   0.00000000    
           2

 O   2.40065908       0.00000000       0.00000000      -1.25674531E-02
 C   0.00000000       0.00000000      -1.25674531E-02   0.00000000    
           2

 O   2.36914635       0.00000000       0.00000000       2.94071771E-02
 C   0.00000000       0.00000000       2.94071771E-02   0.00000000    
           2

 O   2.33362722       0.00000000       0.00000000       7.67183453E-02
 C   0.00000000       0.00000000       7.67183453E-02   0.00000000    
           2

 O   2.29894352       0.00000000       0.00000000      0.122916684    
 C   0.00000000       0.00000000      0.122916684       0.00000000    
           2

 O   2.27125692       0.00000000       0.00000000      0.159795120    
 C   0.00000000       0.00000000      0.159795120       0.00000000    
           2

 O   2.25671577       0.00000000       0.00000000      0.179163828    
 C   0.00000000       0.00000000      0.179163828       0.00000000    
           2

 O   2.25905609       0.00000000       0.00000000      0.176046491    
 C   0.00000000       0.00000000      0.176046491       0.00000000    
           2

 O   2.27765107       0.00000000       0.00000000      0.151277900    
 C   0.00000000       0.00000000      0.151277900       0.00000000    
           2

 O   2.30786371       0.00000000       0.00000000      0.111034706    
 C   0.00000000       0.00000000      0.111034706       0.00000000    
           2

 O   2.34333658       0.00000000       0.00000000       6.37851357E-02
 C   0.00000000       0.00000000       6.37851357E-02   0.00000000    
           2

 O   2.37818646       0.00000000       0.00000000       1.73653290E-02
 C   0.00000000       0.00000000       1.73653290E-02   0.00000000    
           2

 O   2.40799975       0.00000000       0.00000000      -2.23459490E-02
 C   0.00000000       0.00000000      -2.23459490E-02   0.00000000    
           2

 O   2.42988062       0.00000000       0.00000000      -5.14912903E-02
 C   0.00000000       0.00000000      -5.14912903E-02   0.00000000    
           2

 O   2.44213629       0.00000000       0.00000000      -6.78158253E-02
 C   0.00000000       0.00000000      -6.78158253E-02   0.00000000    
           2

 O   2.44395852       0.00000000       0.00000000      -7.02431798E-02
 C   0.00000000       0.00000000      -7.02431798E-02   0.00000000    
           2

 O   2.43523526       0.00000000       0.00000000      -5.86239211E-02
 C   0.00000000       0.00000000      -5.86239211E-02   0.00000000    
           2

 O   2.41652203       0.00000000       0.00000000      -3.36980000E-02
 C   0.00000000       0.00000000      -3.36980000E-02   0.00000000    
           2

 O   2.38917685       0.00000000       0.00000000       2.72562727E-03
 C   0.00000000       0.00000000       2.72562727E-03   0.00000000    
           2

 O   2.35564160       0.00000000       0.00000000       4.73941639E-02
 C   0.00000000       0.00000000       4.73941639E-02   0.00000000    
           2

 O   2.31978488       0.00000000       0.00000000       9.51551050E-02
 C   0.00000000       0.00000000       9.51551050E-02   0.00000000    
           2

 O   2.28703594       0.00000000       0.00000000      0.138776481    
 C   0.00000000       0.00000000      0.138776481       0.00000000    
           2

 O   2.26378202       0.00000000       0.00000000      0.169750452    
 C   0.00000000       0.00000000      0.169750452       0.00000000    
           2

 O   2.25554729       0.00000000       0.00000000      0.180718824    
 C   0.00000000       0.00000000      0.180718824       0.00000000    
           2

 O   2.26451063       0.00000000       0.00000000      0.168779597    
 C   0.00000000       0.00000000      0.168779597       0.00000000    
           2

 O   2.28830624       0.00000000       0.00000000      0.137083799    
 C   0.00000000       0.00000000      0.137083799       0.00000000    
           2

 O   2.32132030       0.00000000       0.00000000       9.31092352E-02
 C   0.00000000       0.00000000       9.31092352E-02   0.00000000    
           2

 O   2.35717821       0.00000000       0.00000000       4.53464985E-02
 C   0.00000000       0.00000000       4.53464985E-02   0.00000000    
           2

 O   2.39051366       0.00000000       0.00000000       9.43850726E-04
 C   0.00000000       0.00000000       9.43850726E-04   0.00000000    
           2

 O   2.41752601       0.00000000       0.00000000      -3.50363888E-02
 C   0.00000000       0.00000000      -3.50363888E-02   0.00000000    
           2

 O   2.43582726       0.00000000       0.00000000      -5.94137236E-02
 C   0.00000000       0.00000000      -5.94137236E-02   0.00000000    
           2

 O   2.44409943       0.00000000       0.00000000      -7.04321414E-02
 C   0.00000000       0.00000000      -7.04321414E-02   0.00000000    
           2

 O   2.44181728       0.00000000       0.00000000      -6.73924610E-02
 C   0.00000000       0.00000000      -6.73924610E-02   0.00000000    
           2

 O   2.42912149       0.00000000       0.00000000      -5.04819863E-02
 C   0.00000000       0.00000000      -5.04819863E-02   0.00000000    
           2

 O   2.40685368       0.00000000       0.00000000      -2.08215136E-02
 C   0.00000000       0.00000000      -2.08215136E-02   0.00000000    
           2

 O   2.37675166       0.00000000       0.00000000       1.92742366E-02
 C   0.00000000       0.00000000       1.92742366E-02   0.00000000    
           2

 O   2.34177136       0.00000000       0.00000000       6.58675954E-02
 C   0.00000000       0.00000000       6.58675954E-02   0.00000000    
           2

 O   2.30639601       0.00000000       0.00000000      0.112987384    
 C   0.00000000       0.00000000      0.112987384       0.00000000    
           2

 O   2.27655864       0.00000000       0.00000000      0.152730569    
 C   0.00000000       0.00000000      0.152730569       0.00000000    
