           2

 O   2.40398121       0.00000000       0.00000000      -408.839783    
 C   0.00000000       0.00000000      -408.839783       0.00000000    
           2

 O   2.50796247       0.00000000       0.00000000      -408.978271    
 C   0.00000000       0.00000000      -408.978271       0.00000000    
           2

 O   2.61194372       0.00000000       0.00000000      -409.116760    
 C   0.00000000       0.00000000      -409.116760       0.00000000    
           2

 O   2.71592498       0.00000000       0.00000000      -409.255249    
 C   0.00000000       0.00000000      -409.255249       0.00000000    
           2

 O   2.81990623       0.00000000       0.00000000      -409.393738    
 C   0.00000000       0.00000000      -409.393738       0.00000000    
           2

 O   2.92388749       0.00000000       0.00000000      -409.532227    
 C   0.00000000       0.00000000      -409.532227       0.00000000    
           2

 O   3.02786875       0.00000000       0.00000000      -409.670715    
 C   0.00000000       0.00000000      -409.670715       0.00000000    
           2

 O   3.13185000       0.00000000       0.00000000      -409.809204    
 C   0.00000000       0.00000000      -409.809204       0.00000000    
           2

 O   3.23583126       0.00000000       0.00000000      -409.947693    
 C   0.00000000       0.00000000      -409.947693       0.00000000    
           2

 O   3.33981252       0.00000000       0.00000000      -410.086182    
 C   0.00000000       0.00000000      -410.086182       0.00000000    
           2

 O   3.44379377       0.00000000       0.00000000      -410.224670    
 C   0.00000000       0.00000000      -410.224670       0.00000000    
           2

 O   3.54777503       0.00000000       0.00000000      -410.363159    
 C   0.00000000       0.00000000      -410.363159       0.00000000    
           2

 O   3.65175629       0.00000000       0.00000000      -410.501648    
 C   0.00000000       0.00000000      -410.501648       0.00000000    
           2

 O   3.75573754       0.00000000       0.00000000      -410.640137    
 C   0.00000000       0.00000000      -410.640137       0.00000000    
           2

 O   3.85971880       0.00000000       0.00000000      -410.778625    
 C   0.00000000       0.00000000      -410.778625       0.00000000    
           2

 O   3.96370006       0.00000000       0.00000000      -410.917114    
 C   0.00000000       0.00000000      -410.917114       0.00000000    
           2

 O   4.06768131       0.00000000       0.00000000      -411.055603    
 C   0.00000000       0.00000000      -411.055603       0.00000000    
           2

 O   4.17166233       0.00000000       0.00000000      -411.194092    
 C   0.00000000       0.00000000      -411.194092       0.00000000    
           2

 O   4.27564335       0.00000000       0.00000000      -411.332581    
 C   0.00000000       0.00000000      -411.332581       0.00000000    
           2

 O   4.37962437       0.00000000       0.00000000      -411.471069    
 C   0.00000000       0.00000000      -411.471069       0.00000000    
           2

 O   4.48360538       0.00000000       0.00000000      -411.609558    
 C   0.00000000       0.00000000      -411.609558       0.00000000    
           2

 O   4.58758640       0.00000000       0.00000000      -411.748047    
 C   0.00000000       0.00000000      -411.748047       0.00000000    
           2

 O   4.69156742       0.00000000       0.00000000      -411.886536    
 C   0.00000000       0.00000000      -411.886536       0.00000000    
           2

 O   4.79554844       0.00000000       0.00000000      -412.025024    
 C   0.00000000       0.00000000      -412.025024       0.00000000    
           2

 O   4.89952946       0.00000000       0.00000000      -412.163513    
 C   0.00000000       0.00000000      -412.163513       0.00000000    
           2

 O   5.00351048       0.00000000       0.00000000      -412.302002    
 C   0.00000000       0.00000000      -412.302002       0.00000000    
           2

 O   5.10749149       0.00000000       0.00000000      -412.440491    
 C   0.00000000       0.00000000      -412.440491       0.00000000    
           2

 O   5.21147251       0.00000000       0.00000000      -412.578979    
 C   0.00000000       0.00000000      -412.578979       0.00000000    
           2

 O   5.31545353       0.00000000       0.00000000      -412.717468    
 C   0.00000000       0.00000000      -412.717468       0.00000000    
           2

 O   5.41943455       0.00000000       0.00000000      -412.855957    
 C   0.00000000       0.00000000      -412.855957       0.00000000    
           2

 O   5.52341557       0.00000000       0.00000000      -412.994446    
 C   0.00000000       0.00000000      -412.994446       0.00000000    
           2

 O   5.62739658       0.00000000       0.00000000      -413.132935    
 C   0.00000000       0.00000000      -413.132935       0.00000000    
           2

 O   5.73137760       0.00000000       0.00000000      -413.271423    
 C   0.00000000       0.00000000      -413.271423       0.00000000    
           2

 O   5.83535862       0.00000000       0.00000000      -413.409912    
 C   0.00000000       0.00000000      -413.409912       0.00000000    
           2

 O   5.93933964       0.00000000       0.00000000      -413.548401    
 C   0.00000000       0.00000000      -413.548401       0.00000000    
           2

 O   6.04332066       0.00000000       0.00000000      -413.686890    
 C   0.00000000       0.00000000      -413.686890       0.00000000    
           2

 O   6.14730167       0.00000000       0.00000000      -413.825378    
 C   0.00000000       0.00000000      -413.825378       0.00000000    
           2

 O   6.25128269       0.00000000       0.00000000      -413.963867    
 C   0.00000000       0.00000000      -413.963867       0.00000000    
           2

 O   6.35526371       0.00000000       0.00000000      -414.102356    
 C   0.00000000       0.00000000      -414.102356       0.00000000    
           2

 O   6.45924473       0.00000000       0.00000000      -414.240845    
 C   0.00000000       0.00000000      -414.240845       0.00000000    
           2

 O   6.56322575       0.00000000       0.00000000      -414.379333    
 C   0.00000000       0.00000000      -414.379333       0.00000000    
           2

 O   6.66720676       0.00000000       0.00000000      -414.517822    
 C   0.00000000       0.00000000      -414.517822       0.00000000    
           2

 O   6.77118778       0.00000000       0.00000000      -414.656311    
 C   0.00000000       0.00000000      -414.656311       0.00000000    
           2

 O   6.87516880       0.00000000       0.00000000      -414.794800    
 C   0.00000000       0.00000000      -414.794800       0.00000000    
           2

 O   6.97914982       0.00000000       0.00000000      -414.933289    
 C   0.00000000       0.00000000      -414.933289       0.00000000    
           2

 O   7.08313084       0.00000000       0.00000000      -415.071777    
 C   0.00000000       0.00000000      -415.071777       0.00000000    
           2

 O   7.18711185       0.00000000       0.00000000      -415.210266    
 C   0.00000000       0.00000000      -415.210266       0.00000000    
           2

 O   7.29109287       0.00000000       0.00000000      -415.348755    
 C   0.00000000       0.00000000      -415.348755       0.00000000    
           2

 O   7.39507389       0.00000000       0.00000000      -415.487244    
 C   0.00000000       0.00000000      -415.487244       0.00000000    
           2

 O   7.49905491       0.00000000       0.00000000      -415.625732    
 C   0.00000000       0.00000000      -415.625732       0.00000000    
           2

 O   7.60303593       0.00000000       0.00000000      -415.764221    
 C   0.00000000       0.00000000      -415.764221       0.00000000    
           2

 O   7.70701694       0.00000000       0.00000000      -415.902710    
 C   0.00000000       0.00000000      -415.902710       0.00000000    
           2

 O   7.81099796       0.00000000       0.00000000      -416.041199    
 C   0.00000000       0.00000000      -416.041199       0.00000000    
           2

 O   7.91497898       0.00000000       0.00000000      -416.179688    
 C   0.00000000       0.00000000      -416.179688       0.00000000    
           2

 O   8.01896000       0.00000000       0.00000000      -416.318176    
 C   0.00000000       0.00000000      -416.318176       0.00000000    
           2

 O   8.12294102       0.00000000       0.00000000      -416.456665    
 C   0.00000000       0.00000000      -416.456665       0.00000000    
           2

 O   8.22692204       0.00000000       0.00000000      -416.595154    
 C   0.00000000       0.00000000      -416.595154       0.00000000    
           2

 O   8.33090305       0.00000000       0.00000000      -416.733643    
 C   0.00000000       0.00000000      -416.733643       0.00000000    
           2

 O   8.43488407       0.00000000       0.00000000      -416.872131    
 C   0.00000000       0.00000000      -416.872131       0.00000000    
           2

 O   8.53886509       0.00000000       0.00000000      -417.010620    
 C   0.00000000       0.00000000      -417.010620       0.00000000    
           2

 O   8.64284611       0.00000000       0.00000000      -417.149109    
 C   0.00000000       0.00000000      -417.149109       0.00000000    
           2

 O   8.74682713       0.00000000       0.00000000      -417.287598    
 C   0.00000000       0.00000000      -417.287598       0.00000000    
           2

 O   8.85080814       0.00000000       0.00000000      -417.426086    
 C   0.00000000       0.00000000      -417.426086       0.00000000    
           2

 O   8.95478916       0.00000000       0.00000000      -417.564575    
 C   0.00000000       0.00000000      -417.564575       0.00000000    
           2

 O   9.05877018       0.00000000       0.00000000      -417.703064    
 C   0.00000000       0.00000000      -417.703064       0.00000000    
           2

 O   9.16275120       0.00000000       0.00000000      -417.841553    
 C   0.00000000       0.00000000      -417.841553       0.00000000    
           2

 O   9.26673222       0.00000000       0.00000000      -417.980042    
 C   0.00000000       0.00000000      -417.980042       0.00000000    
           2

 O   9.37071323       0.00000000       0.00000000      -418.118530    
 C   0.00000000       0.00000000      -418.118530       0.00000000    
           2

 O   9.47469425       0.00000000       0.00000000      -418.257019    
 C   0.00000000       0.00000000      -418.257019       0.00000000    
           2

 O   9.57867527       0.00000000       0.00000000      -418.395508    
 C   0.00000000       0.00000000      -418.395508       0.00000000    
           2

 O   9.68265629       0.00000000       0.00000000      -418.533997    
 C   0.00000000       0.00000000      -418.533997       0.00000000    
           2

 O   9.78663731       0.00000000       0.00000000      -418.672485    
 C   0.00000000       0.00000000      -418.672485       0.00000000    
           2

 O   9.89061832       0.00000000       0.00000000      -418.810974    
 C   0.00000000       0.00000000      -418.810974       0.00000000    
           2

 O   9.99459934       0.00000000       0.00000000      -418.949463    
 C   0.00000000       0.00000000      -418.949463       0.00000000    
           2

 O   10.0985804       0.00000000       0.00000000      -419.087952    
 C   0.00000000       0.00000000      -419.087952       0.00000000    
           2

 O   10.2025614       0.00000000       0.00000000      -419.226440    
 C   0.00000000       0.00000000      -419.226440       0.00000000    
           2

 O   10.3065424       0.00000000       0.00000000      -419.364929    
 C   0.00000000       0.00000000      -419.364929       0.00000000    
           2

 O   10.4105234       0.00000000       0.00000000      -419.503418    
 C   0.00000000       0.00000000      -419.503418       0.00000000    
           2

 O   10.5145044       0.00000000       0.00000000      -419.641907    
 C   0.00000000       0.00000000      -419.641907       0.00000000    
           2

 O   10.6184855       0.00000000       0.00000000      -419.780396    
 C   0.00000000       0.00000000      -419.780396       0.00000000    
           2

 O   10.7224665       0.00000000       0.00000000      -419.918884    
 C   0.00000000       0.00000000      -419.918884       0.00000000    
           2

 O   10.8264475       0.00000000       0.00000000      -420.057373    
 C   0.00000000       0.00000000      -420.057373       0.00000000    
           2

 O   10.9304285       0.00000000       0.00000000      -420.195862    
 C   0.00000000       0.00000000      -420.195862       0.00000000    
           2

 O   11.0344095       0.00000000       0.00000000      -420.334351    
 C   0.00000000       0.00000000      -420.334351       0.00000000    
           2

 O   11.1383905       0.00000000       0.00000000      -420.472839    
 C   0.00000000       0.00000000      -420.472839       0.00000000    
           2

 O   11.2423716       0.00000000       0.00000000      -420.611328    
 C   0.00000000       0.00000000      -420.611328       0.00000000    
           2

 O   11.3463526       0.00000000       0.00000000      -420.749817    
 C   0.00000000       0.00000000      -420.749817       0.00000000    
           2

 O   11.4503336       0.00000000       0.00000000      -420.888306    
 C   0.00000000       0.00000000      -420.888306       0.00000000    
           2

 O   11.5543146       0.00000000       0.00000000      -421.026794    
 C   0.00000000       0.00000000      -421.026794       0.00000000    
           2

 O   11.6582956       0.00000000       0.00000000      -421.165283    
 C   0.00000000       0.00000000      -421.165283       0.00000000    
           2

 O   11.7622766       0.00000000       0.00000000      -421.303772    
 C   0.00000000       0.00000000      -421.303772       0.00000000    
           2

 O   11.8662577       0.00000000       0.00000000      -421.442261    
 C   0.00000000       0.00000000      -421.442261       0.00000000    
           2

 O   11.9702387       0.00000000       0.00000000      -421.580750    
 C   0.00000000       0.00000000      -421.580750       0.00000000    
           2

 O   12.0742197       0.00000000       0.00000000      -421.719238    
 C   0.00000000       0.00000000      -421.719238       0.00000000    
           2

 O   12.1782007       0.00000000       0.00000000      -421.857727    
 C   0.00000000       0.00000000      -421.857727       0.00000000    
           2

 O   12.2821817       0.00000000       0.00000000      -421.996216    
 C   0.00000000       0.00000000      -421.996216       0.00000000    
           2

 O   12.3861628       0.00000000       0.00000000      -422.134705    
 C   0.00000000       0.00000000      -422.134705       0.00000000    
           2

 O   12.4901438       0.00000000       0.00000000      -422.273193    
 C   0.00000000       0.00000000      -422.273193       0.00000000    
           2

 O   12.5941248       0.00000000       0.00000000      -422.411682    
 C   0.00000000       0.00000000      -422.411682       0.00000000    
           2

 O   12.6981058       0.00000000       0.00000000      -422.550171    
 C   0.00000000       0.00000000      -422.550171       0.00000000    
           2

 O   12.8020868       0.00000000       0.00000000      -422.688660    
 C   0.00000000       0.00000000      -422.688660       0.00000000    
           2

 O   12.9060678       0.00000000       0.00000000      -422.827148    
 C   0.00000000       0.00000000      -422.827148       0.00000000    
           2

 O   13.0100489       0.00000000       0.00000000      -422.965637    
 C   0.00000000       0.00000000      -422.965637       0.00000000    
           2

 O   13.1140299       0.00000000       0.00000000      -423.104126    
 C   0.00000000       0.00000000      -423.104126       0.00000000    
           2

 O   13.2180109       0.00000000       0.00000000      -423.242615    
 C   0.00000000       0.00000000      -423.242615       0.00000000    
           2

 O   13.3219919       0.00000000       0.00000000      -423.381104    
 C   0.00000000       0.00000000      -423.381104       0.00000000    
           2

 O   13.4259729       0.00000000       0.00000000      -423.519592    
 C   0.00000000       0.00000000      -423.519592       0.00000000    
           2

 O   13.5299540       0.00000000       0.00000000      -423.658081    
 C   0.00000000       0.00000000      -423.658081       0.00000000    
           2

 O   13.6339350       0.00000000       0.00000000      -423.796570    
 C   0.00000000       0.00000000      -423.796570       0.00000000    
           2

 O   13.7379160       0.00000000       0.00000000      -423.935059    
 C   0.00000000       0.00000000      -423.935059       0.00000000    
           2

 O   13.8418970       0.00000000       0.00000000      -424.073547    
 C   0.00000000       0.00000000      -424.073547       0.00000000    
           2

 O   13.9458780       0.00000000       0.00000000      -424.212036    
 C   0.00000000       0.00000000      -424.212036       0.00000000    
           2

 O   14.0498590       0.00000000       0.00000000      -424.350525    
 C   0.00000000       0.00000000      -424.350525       0.00000000    
           2

 O   14.1538401       0.00000000       0.00000000      -424.489014    
 C   0.00000000       0.00000000      -424.489014       0.00000000    
           2

 O   14.2578211       0.00000000       0.00000000      -424.627502    
 C   0.00000000       0.00000000      -424.627502       0.00000000    
           2

 O   14.3618021       0.00000000       0.00000000      -424.765991    
 C   0.00000000       0.00000000      -424.765991       0.00000000    
           2

 O   14.4657831       0.00000000       0.00000000      -424.904480    
 C   0.00000000       0.00000000      -424.904480       0.00000000    
           2

 O   14.5697641       0.00000000       0.00000000      -425.042969    
 C   0.00000000       0.00000000      -425.042969       0.00000000    
           2

 O   14.6737452       0.00000000       0.00000000      -425.181458    
 C   0.00000000       0.00000000      -425.181458       0.00000000    
           2

 O   14.7777262       0.00000000       0.00000000      -425.319946    
 C   0.00000000       0.00000000      -425.319946       0.00000000    
           2

 O   14.8817072       0.00000000       0.00000000      -425.458435    
 C   0.00000000       0.00000000      -425.458435       0.00000000    
           2

 O   14.9856882       0.00000000       0.00000000      -425.596924    
 C   0.00000000       0.00000000      -425.596924       0.00000000    
           2

 O   15.0896692       0.00000000       0.00000000      -425.735413    
 C   0.00000000       0.00000000      -425.735413       0.00000000    
           2

 O   15.1936502       0.00000000       0.00000000      -425.873901    
 C   0.00000000       0.00000000      -425.873901       0.00000000    
           2

 O   15.2976313       0.00000000       0.00000000      -426.012390    
 C   0.00000000       0.00000000      -426.012390       0.00000000    
           2

 O   15.4016123       0.00000000       0.00000000      -426.150879    
 C   0.00000000       0.00000000      -426.150879       0.00000000    
           2

 O   15.5055933       0.00000000       0.00000000      -426.289368    
 C   0.00000000       0.00000000      -426.289368       0.00000000    
           2

 O   15.6095743       0.00000000       0.00000000      -426.427856    
 C   0.00000000       0.00000000      -426.427856       0.00000000    
           2

 O   15.7135553       0.00000000       0.00000000      -426.566345    
 C   0.00000000       0.00000000      -426.566345       0.00000000    
           2

 O   15.8175364       0.00000000       0.00000000      -426.704834    
 C   0.00000000       0.00000000      -426.704834       0.00000000    
           2

 O   15.9215174       0.00000000       0.00000000      -426.843323    
 C   0.00000000       0.00000000      -426.843323       0.00000000    
           2

 O   16.0254993       0.00000000       0.00000000      -426.981812    
 C   0.00000000       0.00000000      -426.981812       0.00000000    
           2

 O   16.1294804       0.00000000       0.00000000      -427.120300    
 C   0.00000000       0.00000000      -427.120300       0.00000000    
           2

 O   16.2334614       0.00000000       0.00000000      -427.258789    
 C   0.00000000       0.00000000      -427.258789       0.00000000    
           2

 O   16.3374424       0.00000000       0.00000000      -427.397278    
 C   0.00000000       0.00000000      -427.397278       0.00000000    
           2

 O   16.4414234       0.00000000       0.00000000      -427.535767    
 C   0.00000000       0.00000000      -427.535767       0.00000000    
           2

 O   16.5454044       0.00000000       0.00000000      -427.674255    
 C   0.00000000       0.00000000      -427.674255       0.00000000    
           2

 O   16.6493855       0.00000000       0.00000000      -427.812744    
 C   0.00000000       0.00000000      -427.812744       0.00000000    
           2

 O   16.7533665       0.00000000       0.00000000      -427.951233    
 C   0.00000000       0.00000000      -427.951233       0.00000000    
           2

 O   16.8573475       0.00000000       0.00000000      -428.089722    
 C   0.00000000       0.00000000      -428.089722       0.00000000    
           2

 O   16.9613285       0.00000000       0.00000000      -428.228210    
 C   0.00000000       0.00000000      -428.228210       0.00000000    
           2

 O   17.0653095       0.00000000       0.00000000      -428.366699    
 C   0.00000000       0.00000000      -428.366699       0.00000000    
           2

 O   17.1692905       0.00000000       0.00000000      -428.505188    
 C   0.00000000       0.00000000      -428.505188       0.00000000    
           2

 O   17.2732716       0.00000000       0.00000000      -428.643677    
 C   0.00000000       0.00000000      -428.643677       0.00000000    
           2

 O   17.3772526       0.00000000       0.00000000      -428.782166    
 C   0.00000000       0.00000000      -428.782166       0.00000000    
           2

 O   17.4812336       0.00000000       0.00000000      -428.920654    
 C   0.00000000       0.00000000      -428.920654       0.00000000    
           2

 O   17.5852146       0.00000000       0.00000000      -429.059143    
 C   0.00000000       0.00000000      -429.059143       0.00000000    
           2

 O   17.6891956       0.00000000       0.00000000      -429.197632    
 C   0.00000000       0.00000000      -429.197632       0.00000000    
           2

 O   17.7931767       0.00000000       0.00000000      -429.336121    
 C   0.00000000       0.00000000      -429.336121       0.00000000    
           2

 O   17.8971577       0.00000000       0.00000000      -429.474609    
 C   0.00000000       0.00000000      -429.474609       0.00000000    
           2

 O   18.0011387       0.00000000       0.00000000      -429.613098    
 C   0.00000000       0.00000000      -429.613098       0.00000000    
           2

 O   18.1051197       0.00000000       0.00000000      -429.751587    
 C   0.00000000       0.00000000      -429.751587       0.00000000    
           2

 O   18.2091007       0.00000000       0.00000000      -429.890076    
 C   0.00000000       0.00000000      -429.890076       0.00000000    
           2

 O   18.3130817       0.00000000       0.00000000      -430.028564    
 C   0.00000000       0.00000000      -430.028564       0.00000000    
           2

 O   18.4170628       0.00000000       0.00000000      -430.167053    
 C   0.00000000       0.00000000      -430.167053       0.00000000    
           2

 O   18.5210438       0.00000000       0.00000000      -430.305542    
 C   0.00000000       0.00000000      -430.305542       0.00000000    
           2

 O   18.6250248       0.00000000       0.00000000      -430.444031    
 C   0.00000000       0.00000000      -430.444031       0.00000000    
           2

 O   18.7290058       0.00000000       0.00000000      -430.582520    
 C   0.00000000       0.00000000      -430.582520       0.00000000    
           2

 O   18.8329868       0.00000000       0.00000000      -430.721008    
 C   0.00000000       0.00000000      -430.721008       0.00000000    
           2

 O   18.9369678       0.00000000       0.00000000      -430.859497    
 C   0.00000000       0.00000000      -430.859497       0.00000000    
           2

 O   19.0409489       0.00000000       0.00000000      -430.997986    
 C   0.00000000       0.00000000      -430.997986       0.00000000    
           2

 O   19.1449299       0.00000000       0.00000000      -431.136475    
 C   0.00000000       0.00000000      -431.136475       0.00000000    
           2

 O   19.2489109       0.00000000       0.00000000      -431.274963    
 C   0.00000000       0.00000000      -431.274963       0.00000000    
           2

 O   19.3528919       0.00000000       0.00000000      -431.413452    
 C   0.00000000       0.00000000      -431.413452       0.00000000    
           2

 O   19.4568729       0.00000000       0.00000000      -431.551941    
 C   0.00000000       0.00000000      -431.551941       0.00000000    
           2

 O   19.5608540       0.00000000       0.00000000      -431.690430    
 C   0.00000000       0.00000000      -431.690430       0.00000000    
           2

 O   19.6648350       0.00000000       0.00000000      -431.828918    
 C   0.00000000       0.00000000      -431.828918       0.00000000    
           2

 O   19.7688160       0.00000000       0.00000000      -431.967407    
 C   0.00000000       0.00000000      -431.967407       0.00000000    
           2

 O   19.8727970       0.00000000       0.00000000      -432.105896    
 C   0.00000000       0.00000000      -432.105896       0.00000000    
           2

 O   19.9767780       0.00000000       0.00000000      -432.244385    
 C   0.00000000       0.00000000      -432.244385       0.00000000    
           2

 O   20.0807590       0.00000000       0.00000000      -432.382874    
 C   0.00000000       0.00000000      -432.382874       0.00000000    
           2

 O   20.1847401       0.00000000       0.00000000      -432.521362    
 C   0.00000000       0.00000000      -432.521362       0.00000000    
           2

 O   20.2887211       0.00000000       0.00000000      -432.659851    
 C   0.00000000       0.00000000      -432.659851       0.00000000    
           2

 O   20.3927021       0.00000000       0.00000000      -432.798340    
 C   0.00000000       0.00000000      -432.798340       0.00000000    
           2

 O   20.4966831       0.00000000       0.00000000      -432.936829    
 C   0.00000000       0.00000000      -432.936829       0.00000000    
           2

 O   20.6006641       0.00000000       0.00000000      -433.075317    
 C   0.00000000       0.00000000      -433.075317       0.00000000    
           2

 O   20.7046452       0.00000000       0.00000000      -433.213806    
 C   0.00000000       0.00000000      -433.213806       0.00000000    
           2

 O   20.8086262       0.00000000       0.00000000      -433.352295    
 C   0.00000000       0.00000000      -433.352295       0.00000000    
           2

 O   20.9126072       0.00000000       0.00000000      -433.490784    
 C   0.00000000       0.00000000      -433.490784       0.00000000    
           2

 O   21.0165882       0.00000000       0.00000000      -433.629272    
 C   0.00000000       0.00000000      -433.629272       0.00000000    
           2

 O   21.1205692       0.00000000       0.00000000      -433.767761    
 C   0.00000000       0.00000000      -433.767761       0.00000000    
           2

 O   21.2245502       0.00000000       0.00000000      -433.906250    
 C   0.00000000       0.00000000      -433.906250       0.00000000    
           2

 O   21.3285313       0.00000000       0.00000000      -434.044739    
 C   0.00000000       0.00000000      -434.044739       0.00000000    
           2

 O   21.4325123       0.00000000       0.00000000      -434.183228    
 C   0.00000000       0.00000000      -434.183228       0.00000000    
           2

 O   21.5364933       0.00000000       0.00000000      -434.321716    
 C   0.00000000       0.00000000      -434.321716       0.00000000    
           2

 O   21.6404743       0.00000000       0.00000000      -434.460205    
 C   0.00000000       0.00000000      -434.460205       0.00000000    
           2

 O   21.7444553       0.00000000       0.00000000      -434.598694    
 C   0.00000000       0.00000000      -434.598694       0.00000000    
           2

 O   21.8484364       0.00000000       0.00000000      -434.737183    
 C   0.00000000       0.00000000      -434.737183       0.00000000    
           2

 O   21.9524174       0.00000000       0.00000000      -434.875671    
 C   0.00000000       0.00000000      -434.875671       0.00000000    
           2

 O   22.0563984       0.00000000       0.00000000      -435.014160    
 C   0.00000000       0.00000000      -435.014160       0.00000000    
           2

 O   22.1603794       0.00000000       0.00000000      -435.152649    
 C   0.00000000       0.00000000      -435.152649       0.00000000    
           2

 O   22.2643604       0.00000000       0.00000000      -435.291138    
 C   0.00000000       0.00000000      -435.291138       0.00000000    
           2

 O   22.3683414       0.00000000       0.00000000      -435.429626    
 C   0.00000000       0.00000000      -435.429626       0.00000000    
           2

 O   22.4723225       0.00000000       0.00000000      -435.568115    
 C   0.00000000       0.00000000      -435.568115       0.00000000    
           2

 O   22.5763035       0.00000000       0.00000000      -435.706604    
 C   0.00000000       0.00000000      -435.706604       0.00000000    
           2

 O   22.6802845       0.00000000       0.00000000      -435.845093    
 C   0.00000000       0.00000000      -435.845093       0.00000000    
           2

 O   22.7842655       0.00000000       0.00000000      -435.983582    
 C   0.00000000       0.00000000      -435.983582       0.00000000    
           2

 O   22.8882465       0.00000000       0.00000000      -436.122070    
 C   0.00000000       0.00000000      -436.122070       0.00000000    
           2

 O   22.9922276       0.00000000       0.00000000      -436.260559    
 C   0.00000000       0.00000000      -436.260559       0.00000000    
           2

 O   23.0962086       0.00000000       0.00000000      -436.399048    
 C   0.00000000       0.00000000      -436.399048       0.00000000    
           2

 O   23.2001896       0.00000000       0.00000000      -436.537537    
 C   0.00000000       0.00000000      -436.537537       0.00000000    
           2

 O   23.3041706       0.00000000       0.00000000      -436.676025    
 C   0.00000000       0.00000000      -436.676025       0.00000000    
           2

 O   23.4081516       0.00000000       0.00000000      -436.814514    
 C   0.00000000       0.00000000      -436.814514       0.00000000    
           2

 O   23.5121326       0.00000000       0.00000000      -436.953003    
 C   0.00000000       0.00000000      -436.953003       0.00000000    
           2

 O   23.6161137       0.00000000       0.00000000      -437.091492    
 C   0.00000000       0.00000000      -437.091492       0.00000000    
           2

 O   23.7200947       0.00000000       0.00000000      -437.229980    
 C   0.00000000       0.00000000      -437.229980       0.00000000    
           2

 O   23.8240757       0.00000000       0.00000000      -437.368469    
 C   0.00000000       0.00000000      -437.368469       0.00000000    
           2

 O   23.9280567       0.00000000       0.00000000      -437.506958    
 C   0.00000000       0.00000000      -437.506958       0.00000000    
           2

 O   24.0320377       0.00000000       0.00000000      -437.645447    
 C   0.00000000       0.00000000      -437.645447       0.00000000    
           2

 O   24.1360188       0.00000000       0.00000000      -437.783936    
 C   0.00000000       0.00000000      -437.783936       0.00000000    
           2

 O   24.2399998       0.00000000       0.00000000      -437.922424    
 C   0.00000000       0.00000000      -437.922424       0.00000000    
           2

 O   24.3439808       0.00000000       0.00000000      -438.060913    
 C   0.00000000       0.00000000      -438.060913       0.00000000    
           2

 O   24.4479618       0.00000000       0.00000000      -438.199402    
 C   0.00000000       0.00000000      -438.199402       0.00000000    
           2

 O   24.5519428       0.00000000       0.00000000      -438.337891    
 C   0.00000000       0.00000000      -438.337891       0.00000000    
           2

 O   24.6559238       0.00000000       0.00000000      -438.476379    
 C   0.00000000       0.00000000      -438.476379       0.00000000    
           2

 O   24.7599049       0.00000000       0.00000000      -438.614868    
 C   0.00000000       0.00000000      -438.614868       0.00000000    
           2

 O   24.8638859       0.00000000       0.00000000      -438.753357    
 C   0.00000000       0.00000000      -438.753357       0.00000000    
           2

 O   24.9678669       0.00000000       0.00000000      -438.891846    
 C   0.00000000       0.00000000      -438.891846       0.00000000    
           2

 O   25.0718479       0.00000000       0.00000000      -439.030334    
 C   0.00000000       0.00000000      -439.030334       0.00000000    
           2

 O   25.1758289       0.00000000       0.00000000      -439.168823    
 C   0.00000000       0.00000000      -439.168823       0.00000000    
           2

 O   25.2798100       0.00000000       0.00000000      -439.307312    
 C   0.00000000       0.00000000      -439.307312       0.00000000    
           2

 O   25.3837910       0.00000000       0.00000000      -439.445801    
 C   0.00000000       0.00000000      -439.445801       0.00000000    
           2

 O   25.4877720       0.00000000       0.00000000      -439.584290    
 C   0.00000000       0.00000000      -439.584290       0.00000000    
           2

 O   25.5917530       0.00000000       0.00000000      -439.722778    
 C   0.00000000       0.00000000      -439.722778       0.00000000    
           2

 O   25.6957340       0.00000000       0.00000000      -439.861267    
 C   0.00000000       0.00000000      -439.861267       0.00000000    
           2

 O   25.7997150       0.00000000       0.00000000      -439.999756    
 C   0.00000000       0.00000000      -439.999756       0.00000000    
           2

 O   25.9036961       0.00000000       0.00000000      -440.138245    
 C   0.00000000       0.00000000      -440.138245       0.00000000    
           2

 O   26.0076771       0.00000000       0.00000000      -440.276733    
 C   0.00000000       0.00000000      -440.276733       0.00000000    
           2

 O   26.1116581       0.00000000       0.00000000      -440.415222    
 C   0.00000000       0.00000000      -440.415222       0.00000000    
           2

 O   26.2156391       0.00000000       0.00000000      -440.553711    
 C   0.00000000       0.00000000      -440.553711       0.00000000    
           2

 O   26.3196201       0.00000000       0.00000000      -440.692200    
 C   0.00000000       0.00000000      -440.692200       0.00000000    
           2

 O   26.4236012       0.00000000       0.00000000      -440.830688    
 C   0.00000000       0.00000000      -440.830688       0.00000000    
           2

 O   26.5275822       0.00000000       0.00000000      -440.969177    
 C   0.00000000       0.00000000      -440.969177       0.00000000    
           2

 O   26.6315632       0.00000000       0.00000000      -441.107666    
 C   0.00000000       0.00000000      -441.107666       0.00000000    
           2

 O   26.7355442       0.00000000       0.00000000      -441.246155    
 C   0.00000000       0.00000000      -441.246155       0.00000000    
           2

 O   26.8395252       0.00000000       0.00000000      -441.384644    
 C   0.00000000       0.00000000      -441.384644       0.00000000    
           2

 O   26.9435062       0.00000000       0.00000000      -441.523132    
 C   0.00000000       0.00000000      -441.523132       0.00000000    
           2

 O   27.0474873       0.00000000       0.00000000      -441.661621    
 C   0.00000000       0.00000000      -441.661621       0.00000000    
           2

 O   27.1514683       0.00000000       0.00000000      -441.800110    
 C   0.00000000       0.00000000      -441.800110       0.00000000    
           2

 O   27.2554493       0.00000000       0.00000000      -441.938599    
 C   0.00000000       0.00000000      -441.938599       0.00000000    
           2

 O   27.3594303       0.00000000       0.00000000      -442.077087    
 C   0.00000000       0.00000000      -442.077087       0.00000000    
           2

 O   27.4634113       0.00000000       0.00000000      -442.215576    
 C   0.00000000       0.00000000      -442.215576       0.00000000    
           2

 O   27.5673923       0.00000000       0.00000000      -442.354065    
 C   0.00000000       0.00000000      -442.354065       0.00000000    
           2

 O   27.6713734       0.00000000       0.00000000      -442.492554    
 C   0.00000000       0.00000000      -442.492554       0.00000000    
           2

 O   27.7753544       0.00000000       0.00000000      -442.631042    
 C   0.00000000       0.00000000      -442.631042       0.00000000    
           2

 O   27.8793354       0.00000000       0.00000000      -442.769531    
 C   0.00000000       0.00000000      -442.769531       0.00000000    
           2

 O   27.9833164       0.00000000       0.00000000      -442.908020    
 C   0.00000000       0.00000000      -442.908020       0.00000000    
           2

 O   28.0872974       0.00000000       0.00000000      -443.046509    
 C   0.00000000       0.00000000      -443.046509       0.00000000    
           2

 O   28.1912785       0.00000000       0.00000000      -443.184998    
 C   0.00000000       0.00000000      -443.184998       0.00000000    
           2

 O   28.2952595       0.00000000       0.00000000      -443.323486    
 C   0.00000000       0.00000000      -443.323486       0.00000000    
