           2

 O   3.10398126       0.00000000       0.00000000      -512.706360    
 C   0.00000000       0.00000000      -512.706360       0.00000000    
           2

 O   3.20796251       0.00000000       0.00000000      -512.844849    
 C   0.00000000       0.00000000      -512.844849       0.00000000    
           2

 O   3.31194377       0.00000000       0.00000000      -512.983337    
 C   0.00000000       0.00000000      -512.983337       0.00000000    
           2

 O   3.41592503       0.00000000       0.00000000      -513.121826    
 C   0.00000000       0.00000000      -513.121826       0.00000000    
           2

 O   3.51990628       0.00000000       0.00000000      -513.260315    
 C   0.00000000       0.00000000      -513.260315       0.00000000    
           2

 O   3.62388754       0.00000000       0.00000000      -513.398804    
 C   0.00000000       0.00000000      -513.398804       0.00000000    
           2

 O   3.72786880       0.00000000       0.00000000      -513.537292    
 C   0.00000000       0.00000000      -513.537292       0.00000000    
           2

 O   3.83185005       0.00000000       0.00000000      -513.675781    
 C   0.00000000       0.00000000      -513.675781       0.00000000    
           2

 O   3.93583131       0.00000000       0.00000000      -513.814270    
 C   0.00000000       0.00000000      -513.814270       0.00000000    
           2

 O   4.03981256       0.00000000       0.00000000      -513.952759    
 C   0.00000000       0.00000000      -513.952759       0.00000000    
           2

 O   4.14379358       0.00000000       0.00000000      -514.091248    
 C   0.00000000       0.00000000      -514.091248       0.00000000    
           2

 O   4.24777460       0.00000000       0.00000000      -514.229736    
 C   0.00000000       0.00000000      -514.229736       0.00000000    
           2

 O   4.35175562       0.00000000       0.00000000      -514.368225    
 C   0.00000000       0.00000000      -514.368225       0.00000000    
           2

 O   4.45573664       0.00000000       0.00000000      -514.506714    
 C   0.00000000       0.00000000      -514.506714       0.00000000    
           2

 O   4.55971766       0.00000000       0.00000000      -514.645203    
 C   0.00000000       0.00000000      -514.645203       0.00000000    
           2

 O   4.66369867       0.00000000       0.00000000      -514.783691    
 C   0.00000000       0.00000000      -514.783691       0.00000000    
           2

 O   4.76767969       0.00000000       0.00000000      -514.922180    
 C   0.00000000       0.00000000      -514.922180       0.00000000    
           2

 O   4.87166071       0.00000000       0.00000000      -515.060669    
 C   0.00000000       0.00000000      -515.060669       0.00000000    
           2

 O   4.97564173       0.00000000       0.00000000      -515.199158    
 C   0.00000000       0.00000000      -515.199158       0.00000000    
           2

 O   5.07962275       0.00000000       0.00000000      -515.337646    
 C   0.00000000       0.00000000      -515.337646       0.00000000    
           2

 O   5.18360376       0.00000000       0.00000000      -515.476135    
 C   0.00000000       0.00000000      -515.476135       0.00000000    
           2

 O   5.28758478       0.00000000       0.00000000      -515.614624    
 C   0.00000000       0.00000000      -515.614624       0.00000000    
           2

 O   5.39156580       0.00000000       0.00000000      -515.753113    
 C   0.00000000       0.00000000      -515.753113       0.00000000    
           2

 O   5.49554682       0.00000000       0.00000000      -515.891602    
 C   0.00000000       0.00000000      -515.891602       0.00000000    
           2

 O   5.59952784       0.00000000       0.00000000      -516.030090    
 C   0.00000000       0.00000000      -516.030090       0.00000000    
           2

 O   5.70350885       0.00000000       0.00000000      -516.168579    
 C   0.00000000       0.00000000      -516.168579       0.00000000    
           2

 O   5.80748987       0.00000000       0.00000000      -516.307068    
 C   0.00000000       0.00000000      -516.307068       0.00000000    
           2

 O   5.91147089       0.00000000       0.00000000      -516.445557    
 C   0.00000000       0.00000000      -516.445557       0.00000000    
           2

 O   6.01545191       0.00000000       0.00000000      -516.584045    
 C   0.00000000       0.00000000      -516.584045       0.00000000    
           2

 O   6.11943293       0.00000000       0.00000000      -516.722534    
 C   0.00000000       0.00000000      -516.722534       0.00000000    
           2

 O   6.22341394       0.00000000       0.00000000      -516.861023    
 C   0.00000000       0.00000000      -516.861023       0.00000000    
           2

 O   6.32739496       0.00000000       0.00000000      -516.999512    
 C   0.00000000       0.00000000      -516.999512       0.00000000    
           2

 O   6.43137598       0.00000000       0.00000000      -517.138000    
 C   0.00000000       0.00000000      -517.138000       0.00000000    
           2

 O   6.53535700       0.00000000       0.00000000      -517.276489    
 C   0.00000000       0.00000000      -517.276489       0.00000000    
           2

 O   6.63933802       0.00000000       0.00000000      -517.414978    
 C   0.00000000       0.00000000      -517.414978       0.00000000    
           2

 O   6.74331903       0.00000000       0.00000000      -517.553467    
 C   0.00000000       0.00000000      -517.553467       0.00000000    
           2

 O   6.84730005       0.00000000       0.00000000      -517.691956    
 C   0.00000000       0.00000000      -517.691956       0.00000000    
           2

 O   6.95128107       0.00000000       0.00000000      -517.830444    
 C   0.00000000       0.00000000      -517.830444       0.00000000    
           2

 O   7.05526209       0.00000000       0.00000000      -517.968933    
 C   0.00000000       0.00000000      -517.968933       0.00000000    
           2

 O   7.15924311       0.00000000       0.00000000      -518.107422    
 C   0.00000000       0.00000000      -518.107422       0.00000000    
           2

 O   7.26322412       0.00000000       0.00000000      -518.245911    
 C   0.00000000       0.00000000      -518.245911       0.00000000    
           2

 O   7.36720514       0.00000000       0.00000000      -518.384399    
 C   0.00000000       0.00000000      -518.384399       0.00000000    
           2

 O   7.47118616       0.00000000       0.00000000      -518.522888    
 C   0.00000000       0.00000000      -518.522888       0.00000000    
           2

 O   7.57516718       0.00000000       0.00000000      -518.661377    
 C   0.00000000       0.00000000      -518.661377       0.00000000    
           2

 O   7.67914820       0.00000000       0.00000000      -518.799866    
 C   0.00000000       0.00000000      -518.799866       0.00000000    
           2

 O   7.78312922       0.00000000       0.00000000      -518.938354    
 C   0.00000000       0.00000000      -518.938354       0.00000000    
           2

 O   7.88711023       0.00000000       0.00000000      -519.076843    
 C   0.00000000       0.00000000      -519.076843       0.00000000    
           2

 O   7.99109125       0.00000000       0.00000000      -519.215332    
 C   0.00000000       0.00000000      -519.215332       0.00000000    
           2

 O   8.09507275       0.00000000       0.00000000      -519.353821    
 C   0.00000000       0.00000000      -519.353821       0.00000000    
           2

 O   8.19905376       0.00000000       0.00000000      -519.492310    
 C   0.00000000       0.00000000      -519.492310       0.00000000    
           2

 O   8.30303478       0.00000000       0.00000000      -519.630798    
 C   0.00000000       0.00000000      -519.630798       0.00000000    
           2

 O   8.40701580       0.00000000       0.00000000      -519.769287    
 C   0.00000000       0.00000000      -519.769287       0.00000000    
           2

 O   8.51099682       0.00000000       0.00000000      -519.907776    
 C   0.00000000       0.00000000      -519.907776       0.00000000    
           2

 O   8.61497784       0.00000000       0.00000000      -520.046265    
 C   0.00000000       0.00000000      -520.046265       0.00000000    
           2

 O   8.71895885       0.00000000       0.00000000      -520.184753    
 C   0.00000000       0.00000000      -520.184753       0.00000000    
           2

 O   8.82293987       0.00000000       0.00000000      -520.323242    
 C   0.00000000       0.00000000      -520.323242       0.00000000    
           2

 O   8.92692089       0.00000000       0.00000000      -520.461731    
 C   0.00000000       0.00000000      -520.461731       0.00000000    
           2

 O   9.03090191       0.00000000       0.00000000      -520.600220    
 C   0.00000000       0.00000000      -520.600220       0.00000000    
           2

 O   9.13488293       0.00000000       0.00000000      -520.738708    
 C   0.00000000       0.00000000      -520.738708       0.00000000    
           2

 O   9.23886395       0.00000000       0.00000000      -520.877197    
 C   0.00000000       0.00000000      -520.877197       0.00000000    
           2

 O   9.34284496       0.00000000       0.00000000      -521.015686    
 C   0.00000000       0.00000000      -521.015686       0.00000000    
           2

 O   9.44682598       0.00000000       0.00000000      -521.154175    
 C   0.00000000       0.00000000      -521.154175       0.00000000    
           2

 O   9.55080700       0.00000000       0.00000000      -521.292664    
 C   0.00000000       0.00000000      -521.292664       0.00000000    
           2

 O   9.65478802       0.00000000       0.00000000      -521.431152    
 C   0.00000000       0.00000000      -521.431152       0.00000000    
           2

 O   9.75876904       0.00000000       0.00000000      -521.569641    
 C   0.00000000       0.00000000      -521.569641       0.00000000    
           2

 O   9.86275005       0.00000000       0.00000000      -521.708130    
 C   0.00000000       0.00000000      -521.708130       0.00000000    
           2

 O   9.96673107       0.00000000       0.00000000      -521.846619    
 C   0.00000000       0.00000000      -521.846619       0.00000000    
           2

 O   10.0707121       0.00000000       0.00000000      -521.985107    
 C   0.00000000       0.00000000      -521.985107       0.00000000    
           2

 O   10.1746931       0.00000000       0.00000000      -522.123596    
 C   0.00000000       0.00000000      -522.123596       0.00000000    
           2

 O   10.2786741       0.00000000       0.00000000      -522.262085    
 C   0.00000000       0.00000000      -522.262085       0.00000000    
           2

 O   10.3826551       0.00000000       0.00000000      -522.400574    
 C   0.00000000       0.00000000      -522.400574       0.00000000    
           2

 O   10.4866362       0.00000000       0.00000000      -522.539062    
 C   0.00000000       0.00000000      -522.539062       0.00000000    
           2

 O   10.5906172       0.00000000       0.00000000      -522.677551    
 C   0.00000000       0.00000000      -522.677551       0.00000000    
           2

 O   10.6945982       0.00000000       0.00000000      -522.816040    
 C   0.00000000       0.00000000      -522.816040       0.00000000    
           2

 O   10.7985792       0.00000000       0.00000000      -522.954529    
 C   0.00000000       0.00000000      -522.954529       0.00000000    
           2

 O   10.9025602       0.00000000       0.00000000      -523.093018    
 C   0.00000000       0.00000000      -523.093018       0.00000000    
           2

 O   11.0065413       0.00000000       0.00000000      -523.231506    
 C   0.00000000       0.00000000      -523.231506       0.00000000    
           2

 O   11.1105223       0.00000000       0.00000000      -523.369995    
 C   0.00000000       0.00000000      -523.369995       0.00000000    
           2

 O   11.2145033       0.00000000       0.00000000      -523.508484    
 C   0.00000000       0.00000000      -523.508484       0.00000000    
           2

 O   11.3184843       0.00000000       0.00000000      -523.646973    
 C   0.00000000       0.00000000      -523.646973       0.00000000    
           2

 O   11.4224653       0.00000000       0.00000000      -523.785461    
 C   0.00000000       0.00000000      -523.785461       0.00000000    
           2

 O   11.5264463       0.00000000       0.00000000      -523.923950    
 C   0.00000000       0.00000000      -523.923950       0.00000000    
           2

 O   11.6304274       0.00000000       0.00000000      -524.062439    
 C   0.00000000       0.00000000      -524.062439       0.00000000    
           2

 O   11.7344084       0.00000000       0.00000000      -524.200928    
 C   0.00000000       0.00000000      -524.200928       0.00000000    
           2

 O   11.8383894       0.00000000       0.00000000      -524.339417    
 C   0.00000000       0.00000000      -524.339417       0.00000000    
           2

 O   11.9423704       0.00000000       0.00000000      -524.477905    
 C   0.00000000       0.00000000      -524.477905       0.00000000    
           2

 O   12.0463514       0.00000000       0.00000000      -524.616394    
 C   0.00000000       0.00000000      -524.616394       0.00000000    
           2

 O   12.1503325       0.00000000       0.00000000      -524.754883    
 C   0.00000000       0.00000000      -524.754883       0.00000000    
           2

 O   12.2543135       0.00000000       0.00000000      -524.893372    
 C   0.00000000       0.00000000      -524.893372       0.00000000    
           2

 O   12.3582945       0.00000000       0.00000000      -525.031860    
 C   0.00000000       0.00000000      -525.031860       0.00000000    
           2

 O   12.4622755       0.00000000       0.00000000      -525.170349    
 C   0.00000000       0.00000000      -525.170349       0.00000000    
           2

 O   12.5662565       0.00000000       0.00000000      -525.308838    
 C   0.00000000       0.00000000      -525.308838       0.00000000    
           2

 O   12.6702375       0.00000000       0.00000000      -525.447327    
 C   0.00000000       0.00000000      -525.447327       0.00000000    
           2

 O   12.7742186       0.00000000       0.00000000      -525.585815    
 C   0.00000000       0.00000000      -525.585815       0.00000000    
           2

 O   12.8781996       0.00000000       0.00000000      -525.724304    
 C   0.00000000       0.00000000      -525.724304       0.00000000    
           2

 O   12.9821806       0.00000000       0.00000000      -525.862793    
 C   0.00000000       0.00000000      -525.862793       0.00000000    
           2

 O   13.0861616       0.00000000       0.00000000      -526.001282    
 C   0.00000000       0.00000000      -526.001282       0.00000000    
           2

 O   13.1901426       0.00000000       0.00000000      -526.139771    
 C   0.00000000       0.00000000      -526.139771       0.00000000    
           2

 O   13.2941236       0.00000000       0.00000000      -526.278259    
 C   0.00000000       0.00000000      -526.278259       0.00000000    
           2

 O   13.3981047       0.00000000       0.00000000      -526.416748    
 C   0.00000000       0.00000000      -526.416748       0.00000000    
           2

 O   13.5020857       0.00000000       0.00000000      -526.555237    
 C   0.00000000       0.00000000      -526.555237       0.00000000    
           2

 O   13.6060667       0.00000000       0.00000000      -526.693726    
 C   0.00000000       0.00000000      -526.693726       0.00000000    
           2

 O   13.7100477       0.00000000       0.00000000      -526.832214    
 C   0.00000000       0.00000000      -526.832214       0.00000000    
           2

 O   13.8140287       0.00000000       0.00000000      -526.970703    
 C   0.00000000       0.00000000      -526.970703       0.00000000    
           2

 O   13.9180098       0.00000000       0.00000000      -527.109192    
 C   0.00000000       0.00000000      -527.109192       0.00000000    
           2

 O   14.0219908       0.00000000       0.00000000      -527.247681    
 C   0.00000000       0.00000000      -527.247681       0.00000000    
           2

 O   14.1259718       0.00000000       0.00000000      -527.386169    
 C   0.00000000       0.00000000      -527.386169       0.00000000    
           2

 O   14.2299528       0.00000000       0.00000000      -527.524658    
 C   0.00000000       0.00000000      -527.524658       0.00000000    
           2

 O   14.3339338       0.00000000       0.00000000      -527.663147    
 C   0.00000000       0.00000000      -527.663147       0.00000000    
           2

 O   14.4379148       0.00000000       0.00000000      -527.801636    
 C   0.00000000       0.00000000      -527.801636       0.00000000    
           2

 O   14.5418959       0.00000000       0.00000000      -527.940125    
 C   0.00000000       0.00000000      -527.940125       0.00000000    
           2

 O   14.6458769       0.00000000       0.00000000      -528.078613    
 C   0.00000000       0.00000000      -528.078613       0.00000000    
           2

 O   14.7498579       0.00000000       0.00000000      -528.217102    
 C   0.00000000       0.00000000      -528.217102       0.00000000    
           2

 O   14.8538389       0.00000000       0.00000000      -528.355591    
 C   0.00000000       0.00000000      -528.355591       0.00000000    
           2

 O   14.9578199       0.00000000       0.00000000      -528.494080    
 C   0.00000000       0.00000000      -528.494080       0.00000000    
           2

 O   15.0618010       0.00000000       0.00000000      -528.632568    
 C   0.00000000       0.00000000      -528.632568       0.00000000    
           2

 O   15.1657820       0.00000000       0.00000000      -528.771057    
 C   0.00000000       0.00000000      -528.771057       0.00000000    
           2

 O   15.2697630       0.00000000       0.00000000      -528.909546    
 C   0.00000000       0.00000000      -528.909546       0.00000000    
           2

 O   15.3737440       0.00000000       0.00000000      -529.048035    
 C   0.00000000       0.00000000      -529.048035       0.00000000    
           2

 O   15.4777250       0.00000000       0.00000000      -529.186523    
 C   0.00000000       0.00000000      -529.186523       0.00000000    
           2

 O   15.5817060       0.00000000       0.00000000      -529.325012    
 C   0.00000000       0.00000000      -529.325012       0.00000000    
           2

 O   15.6856871       0.00000000       0.00000000      -529.463501    
 C   0.00000000       0.00000000      -529.463501       0.00000000    
           2

 O   15.7896681       0.00000000       0.00000000      -529.601990    
 C   0.00000000       0.00000000      -529.601990       0.00000000    
           2

 O   15.8936491       0.00000000       0.00000000      -529.740479    
 C   0.00000000       0.00000000      -529.740479       0.00000000    
           2

 O   15.9976301       0.00000000       0.00000000      -529.878967    
 C   0.00000000       0.00000000      -529.878967       0.00000000    
           2

 O   16.1016121       0.00000000       0.00000000      -530.017456    
 C   0.00000000       0.00000000      -530.017456       0.00000000    
           2

 O   16.2055931       0.00000000       0.00000000      -530.155945    
 C   0.00000000       0.00000000      -530.155945       0.00000000    
           2

 O   16.3095741       0.00000000       0.00000000      -530.294434    
 C   0.00000000       0.00000000      -530.294434       0.00000000    
           2

 O   16.4135551       0.00000000       0.00000000      -530.432922    
 C   0.00000000       0.00000000      -530.432922       0.00000000    
           2

 O   16.5175362       0.00000000       0.00000000      -530.571411    
 C   0.00000000       0.00000000      -530.571411       0.00000000    
           2

 O   16.6215172       0.00000000       0.00000000      -530.709900    
 C   0.00000000       0.00000000      -530.709900       0.00000000    
           2

 O   16.7254982       0.00000000       0.00000000      -530.848389    
 C   0.00000000       0.00000000      -530.848389       0.00000000    
           2

 O   16.8294792       0.00000000       0.00000000      -530.986877    
 C   0.00000000       0.00000000      -530.986877       0.00000000    
           2

 O   16.9334602       0.00000000       0.00000000      -531.125366    
 C   0.00000000       0.00000000      -531.125366       0.00000000    
           2

 O   17.0374413       0.00000000       0.00000000      -531.263855    
 C   0.00000000       0.00000000      -531.263855       0.00000000    
           2

 O   17.1414223       0.00000000       0.00000000      -531.402344    
 C   0.00000000       0.00000000      -531.402344       0.00000000    
           2

 O   17.2454033       0.00000000       0.00000000      -531.540833    
 C   0.00000000       0.00000000      -531.540833       0.00000000    
           2

 O   17.3493843       0.00000000       0.00000000      -531.679321    
 C   0.00000000       0.00000000      -531.679321       0.00000000    
           2

 O   17.4533653       0.00000000       0.00000000      -531.817810    
 C   0.00000000       0.00000000      -531.817810       0.00000000    
           2

 O   17.5573463       0.00000000       0.00000000      -531.956299    
 C   0.00000000       0.00000000      -531.956299       0.00000000    
           2

 O   17.6613274       0.00000000       0.00000000      -532.094788    
 C   0.00000000       0.00000000      -532.094788       0.00000000    
           2

 O   17.7653084       0.00000000       0.00000000      -532.233276    
 C   0.00000000       0.00000000      -532.233276       0.00000000    
           2

 O   17.8692894       0.00000000       0.00000000      -532.371765    
 C   0.00000000       0.00000000      -532.371765       0.00000000    
           2

 O   17.9732704       0.00000000       0.00000000      -532.510254    
 C   0.00000000       0.00000000      -532.510254       0.00000000    
           2

 O   18.0772514       0.00000000       0.00000000      -532.648743    
 C   0.00000000       0.00000000      -532.648743       0.00000000    
           2

 O   18.1812325       0.00000000       0.00000000      -532.787231    
 C   0.00000000       0.00000000      -532.787231       0.00000000    
           2

 O   18.2852135       0.00000000       0.00000000      -532.925720    
 C   0.00000000       0.00000000      -532.925720       0.00000000    
           2

 O   18.3891945       0.00000000       0.00000000      -533.064209    
 C   0.00000000       0.00000000      -533.064209       0.00000000    
           2

 O   18.4931755       0.00000000       0.00000000      -533.202698    
 C   0.00000000       0.00000000      -533.202698       0.00000000    
           2

 O   18.5971565       0.00000000       0.00000000      -533.341187    
 C   0.00000000       0.00000000      -533.341187       0.00000000    
           2

 O   18.7011375       0.00000000       0.00000000      -533.479675    
 C   0.00000000       0.00000000      -533.479675       0.00000000    
           2

 O   18.8051186       0.00000000       0.00000000      -533.618164    
 C   0.00000000       0.00000000      -533.618164       0.00000000    
           2

 O   18.9090996       0.00000000       0.00000000      -533.756653    
 C   0.00000000       0.00000000      -533.756653       0.00000000    
           2

 O   19.0130806       0.00000000       0.00000000      -533.895142    
 C   0.00000000       0.00000000      -533.895142       0.00000000    
           2

 O   19.1170616       0.00000000       0.00000000      -534.033630    
 C   0.00000000       0.00000000      -534.033630       0.00000000    
           2

 O   19.2210426       0.00000000       0.00000000      -534.172119    
 C   0.00000000       0.00000000      -534.172119       0.00000000    
           2

 O   19.3250237       0.00000000       0.00000000      -534.310608    
 C   0.00000000       0.00000000      -534.310608       0.00000000    
           2

 O   19.4290047       0.00000000       0.00000000      -534.449097    
 C   0.00000000       0.00000000      -534.449097       0.00000000    
           2

 O   19.5329857       0.00000000       0.00000000      -534.587585    
 C   0.00000000       0.00000000      -534.587585       0.00000000    
           2

 O   19.6369667       0.00000000       0.00000000      -534.726074    
 C   0.00000000       0.00000000      -534.726074       0.00000000    
           2

 O   19.7409477       0.00000000       0.00000000      -534.864563    
 C   0.00000000       0.00000000      -534.864563       0.00000000    
           2

 O   19.8449287       0.00000000       0.00000000      -535.003052    
 C   0.00000000       0.00000000      -535.003052       0.00000000    
           2

 O   19.9489098       0.00000000       0.00000000      -535.141541    
 C   0.00000000       0.00000000      -535.141541       0.00000000    
           2

 O   20.0528908       0.00000000       0.00000000      -535.280029    
 C   0.00000000       0.00000000      -535.280029       0.00000000    
           2

 O   20.1568718       0.00000000       0.00000000      -535.418518    
 C   0.00000000       0.00000000      -535.418518       0.00000000    
           2

 O   20.2608528       0.00000000       0.00000000      -535.557007    
 C   0.00000000       0.00000000      -535.557007       0.00000000    
           2

 O   20.3648338       0.00000000       0.00000000      -535.695496    
 C   0.00000000       0.00000000      -535.695496       0.00000000    
           2

 O   20.4688148       0.00000000       0.00000000      -535.833984    
 C   0.00000000       0.00000000      -535.833984       0.00000000    
           2

 O   20.5727959       0.00000000       0.00000000      -535.972473    
 C   0.00000000       0.00000000      -535.972473       0.00000000    
           2

 O   20.6767769       0.00000000       0.00000000      -536.110962    
 C   0.00000000       0.00000000      -536.110962       0.00000000    
           2

 O   20.7807579       0.00000000       0.00000000      -536.249451    
 C   0.00000000       0.00000000      -536.249451       0.00000000    
           2

 O   20.8847389       0.00000000       0.00000000      -536.387939    
 C   0.00000000       0.00000000      -536.387939       0.00000000    
           2

 O   20.9887199       0.00000000       0.00000000      -536.526428    
 C   0.00000000       0.00000000      -536.526428       0.00000000    
           2

 O   21.0927010       0.00000000       0.00000000      -536.664917    
 C   0.00000000       0.00000000      -536.664917       0.00000000    
           2

 O   21.1966820       0.00000000       0.00000000      -536.803406    
 C   0.00000000       0.00000000      -536.803406       0.00000000    
           2

 O   21.3006630       0.00000000       0.00000000      -536.941895    
 C   0.00000000       0.00000000      -536.941895       0.00000000    
           2

 O   21.4046440       0.00000000       0.00000000      -537.080383    
 C   0.00000000       0.00000000      -537.080383       0.00000000    
           2

 O   21.5086250       0.00000000       0.00000000      -537.218872    
 C   0.00000000       0.00000000      -537.218872       0.00000000    
           2

 O   21.6126060       0.00000000       0.00000000      -537.357361    
 C   0.00000000       0.00000000      -537.357361       0.00000000    
           2

 O   21.7165871       0.00000000       0.00000000      -537.495850    
 C   0.00000000       0.00000000      -537.495850       0.00000000    
           2

 O   21.8205681       0.00000000       0.00000000      -537.634338    
 C   0.00000000       0.00000000      -537.634338       0.00000000    
           2

 O   21.9245491       0.00000000       0.00000000      -537.772827    
 C   0.00000000       0.00000000      -537.772827       0.00000000    
           2

 O   22.0285301       0.00000000       0.00000000      -537.911316    
 C   0.00000000       0.00000000      -537.911316       0.00000000    
           2

 O   22.1325111       0.00000000       0.00000000      -538.049805    
 C   0.00000000       0.00000000      -538.049805       0.00000000    
           2

 O   22.2364922       0.00000000       0.00000000      -538.188293    
 C   0.00000000       0.00000000      -538.188293       0.00000000    
           2

 O   22.3404732       0.00000000       0.00000000      -538.326782    
 C   0.00000000       0.00000000      -538.326782       0.00000000    
           2

 O   22.4444542       0.00000000       0.00000000      -538.465271    
 C   0.00000000       0.00000000      -538.465271       0.00000000    
           2

 O   22.5484352       0.00000000       0.00000000      -538.603760    
 C   0.00000000       0.00000000      -538.603760       0.00000000    
           2

 O   22.6524162       0.00000000       0.00000000      -538.742249    
 C   0.00000000       0.00000000      -538.742249       0.00000000    
           2

 O   22.7563972       0.00000000       0.00000000      -538.880737    
 C   0.00000000       0.00000000      -538.880737       0.00000000    
           2

 O   22.8603783       0.00000000       0.00000000      -539.019226    
 C   0.00000000       0.00000000      -539.019226       0.00000000    
           2

 O   22.9643593       0.00000000       0.00000000      -539.157715    
 C   0.00000000       0.00000000      -539.157715       0.00000000    
           2

 O   23.0683403       0.00000000       0.00000000      -539.296204    
 C   0.00000000       0.00000000      -539.296204       0.00000000    
           2

 O   23.1723213       0.00000000       0.00000000      -539.434692    
 C   0.00000000       0.00000000      -539.434692       0.00000000    
           2

 O   23.2763023       0.00000000       0.00000000      -539.573181    
 C   0.00000000       0.00000000      -539.573181       0.00000000    
           2

 O   23.3802834       0.00000000       0.00000000      -539.711670    
 C   0.00000000       0.00000000      -539.711670       0.00000000    
           2

 O   23.4842644       0.00000000       0.00000000      -539.850159    
 C   0.00000000       0.00000000      -539.850159       0.00000000    
           2

 O   23.5882454       0.00000000       0.00000000      -539.988647    
 C   0.00000000       0.00000000      -539.988647       0.00000000    
           2

 O   23.6922264       0.00000000       0.00000000      -540.127136    
 C   0.00000000       0.00000000      -540.127136       0.00000000    
           2

 O   23.7962074       0.00000000       0.00000000      -540.265625    
 C   0.00000000       0.00000000      -540.265625       0.00000000    
           2

 O   23.9001884       0.00000000       0.00000000      -540.404114    
 C   0.00000000       0.00000000      -540.404114       0.00000000    
           2

 O   24.0041695       0.00000000       0.00000000      -540.542603    
 C   0.00000000       0.00000000      -540.542603       0.00000000    
           2

 O   24.1081505       0.00000000       0.00000000      -540.681091    
 C   0.00000000       0.00000000      -540.681091       0.00000000    
           2

 O   24.2121315       0.00000000       0.00000000      -540.819580    
 C   0.00000000       0.00000000      -540.819580       0.00000000    
           2

 O   24.3161125       0.00000000       0.00000000      -540.958069    
 C   0.00000000       0.00000000      -540.958069       0.00000000    
           2

 O   24.4200935       0.00000000       0.00000000      -541.096558    
 C   0.00000000       0.00000000      -541.096558       0.00000000    
           2

 O   24.5240746       0.00000000       0.00000000      -541.235046    
 C   0.00000000       0.00000000      -541.235046       0.00000000    
           2

 O   24.6280556       0.00000000       0.00000000      -541.373535    
 C   0.00000000       0.00000000      -541.373535       0.00000000    
           2

 O   24.7320366       0.00000000       0.00000000      -541.512024    
 C   0.00000000       0.00000000      -541.512024       0.00000000    
           2

 O   24.8360176       0.00000000       0.00000000      -541.650513    
 C   0.00000000       0.00000000      -541.650513       0.00000000    
           2

 O   24.9399986       0.00000000       0.00000000      -541.789001    
 C   0.00000000       0.00000000      -541.789001       0.00000000    
           2

 O   25.0439796       0.00000000       0.00000000      -541.927490    
 C   0.00000000       0.00000000      -541.927490       0.00000000    
           2

 O   25.1479607       0.00000000       0.00000000      -542.065979    
 C   0.00000000       0.00000000      -542.065979       0.00000000    
           2

 O   25.2519417       0.00000000       0.00000000      -542.204468    
 C   0.00000000       0.00000000      -542.204468       0.00000000    
           2

 O   25.3559227       0.00000000       0.00000000      -542.342957    
 C   0.00000000       0.00000000      -542.342957       0.00000000    
           2

 O   25.4599037       0.00000000       0.00000000      -542.481445    
 C   0.00000000       0.00000000      -542.481445       0.00000000    
           2

 O   25.5638847       0.00000000       0.00000000      -542.619934    
 C   0.00000000       0.00000000      -542.619934       0.00000000    
           2

 O   25.6678658       0.00000000       0.00000000      -542.758423    
 C   0.00000000       0.00000000      -542.758423       0.00000000    
           2

 O   25.7718468       0.00000000       0.00000000      -542.896912    
 C   0.00000000       0.00000000      -542.896912       0.00000000    
           2

 O   25.8758278       0.00000000       0.00000000      -543.035400    
 C   0.00000000       0.00000000      -543.035400       0.00000000    
           2

 O   25.9798088       0.00000000       0.00000000      -543.173889    
 C   0.00000000       0.00000000      -543.173889       0.00000000    
           2

 O   26.0837898       0.00000000       0.00000000      -543.312378    
 C   0.00000000       0.00000000      -543.312378       0.00000000    
           2

 O   26.1877708       0.00000000       0.00000000      -543.450867    
 C   0.00000000       0.00000000      -543.450867       0.00000000    
           2

 O   26.2917519       0.00000000       0.00000000      -543.589355    
 C   0.00000000       0.00000000      -543.589355       0.00000000    
           2

 O   26.3957329       0.00000000       0.00000000      -543.727844    
 C   0.00000000       0.00000000      -543.727844       0.00000000    
           2

 O   26.4997139       0.00000000       0.00000000      -543.866333    
 C   0.00000000       0.00000000      -543.866333       0.00000000    
           2

 O   26.6036949       0.00000000       0.00000000      -544.004822    
 C   0.00000000       0.00000000      -544.004822       0.00000000    
           2

 O   26.7076759       0.00000000       0.00000000      -544.143311    
 C   0.00000000       0.00000000      -544.143311       0.00000000    
           2

 O   26.8116570       0.00000000       0.00000000      -544.281799    
 C   0.00000000       0.00000000      -544.281799       0.00000000    
           2

 O   26.9156380       0.00000000       0.00000000      -544.420288    
 C   0.00000000       0.00000000      -544.420288       0.00000000    
           2

 O   27.0196190       0.00000000       0.00000000      -544.558777    
 C   0.00000000       0.00000000      -544.558777       0.00000000    
           2

 O   27.1236000       0.00000000       0.00000000      -544.697266    
 C   0.00000000       0.00000000      -544.697266       0.00000000    
           2

 O   27.2275810       0.00000000       0.00000000      -544.835754    
 C   0.00000000       0.00000000      -544.835754       0.00000000    
           2

 O   27.3315620       0.00000000       0.00000000      -544.974243    
 C   0.00000000       0.00000000      -544.974243       0.00000000    
           2

 O   27.4355431       0.00000000       0.00000000      -545.112732    
 C   0.00000000       0.00000000      -545.112732       0.00000000    
           2

 O   27.5395241       0.00000000       0.00000000      -545.251221    
 C   0.00000000       0.00000000      -545.251221       0.00000000    
           2

 O   27.6435051       0.00000000       0.00000000      -545.389709    
 C   0.00000000       0.00000000      -545.389709       0.00000000    
           2

 O   27.7474861       0.00000000       0.00000000      -545.528198    
 C   0.00000000       0.00000000      -545.528198       0.00000000    
           2

 O   27.8514671       0.00000000       0.00000000      -545.666687    
 C   0.00000000       0.00000000      -545.666687       0.00000000    
           2

 O   27.9554482       0.00000000       0.00000000      -545.805176    
 C   0.00000000       0.00000000      -545.805176       0.00000000    
           2

 O   28.0594292       0.00000000       0.00000000      -545.943665    
 C   0.00000000       0.00000000      -545.943665       0.00000000    
           2

 O   28.1634102       0.00000000       0.00000000      -546.082153    
 C   0.00000000       0.00000000      -546.082153       0.00000000    
           2

 O   28.2673912       0.00000000       0.00000000      -546.220642    
 C   0.00000000       0.00000000      -546.220642       0.00000000    
           2

 O   28.3713722       0.00000000       0.00000000      -546.359131    
 C   0.00000000       0.00000000      -546.359131       0.00000000    
           2

 O   28.4753532       0.00000000       0.00000000      -546.497620    
 C   0.00000000       0.00000000      -546.497620       0.00000000    
           2

 O   28.5793343       0.00000000       0.00000000      -546.636108    
 C   0.00000000       0.00000000      -546.636108       0.00000000    
           2

 O   28.6833153       0.00000000       0.00000000      -546.774597    
 C   0.00000000       0.00000000      -546.774597       0.00000000    
           2

 O   28.7872963       0.00000000       0.00000000      -546.913086    
 C   0.00000000       0.00000000      -546.913086       0.00000000    
           2

 O   28.8912773       0.00000000       0.00000000      -547.051575    
 C   0.00000000       0.00000000      -547.051575       0.00000000    
           2

 O   28.9952583       0.00000000       0.00000000      -547.190063    
 C   0.00000000       0.00000000      -547.190063       0.00000000    
