           2

 O   3.10398126       0.00000000       0.00000000      -478.084167    
 C   0.00000000       0.00000000      -478.084167       0.00000000    
           2

 O   3.20796251       0.00000000       0.00000000      -478.222656    
 C   0.00000000       0.00000000      -478.222656       0.00000000    
           2

 O   3.31194377       0.00000000       0.00000000      -478.361145    
 C   0.00000000       0.00000000      -478.361145       0.00000000    
           2

 O   3.41592503       0.00000000       0.00000000      -478.499634    
 C   0.00000000       0.00000000      -478.499634       0.00000000    
           2

 O   3.51990628       0.00000000       0.00000000      -478.638123    
 C   0.00000000       0.00000000      -478.638123       0.00000000    
           2

 O   3.62388754       0.00000000       0.00000000      -478.776611    
 C   0.00000000       0.00000000      -478.776611       0.00000000    
           2

 O   3.72786880       0.00000000       0.00000000      -478.915100    
 C   0.00000000       0.00000000      -478.915100       0.00000000    
           2

 O   3.83185005       0.00000000       0.00000000      -479.053589    
 C   0.00000000       0.00000000      -479.053589       0.00000000    
           2

 O   3.93583131       0.00000000       0.00000000      -479.192078    
 C   0.00000000       0.00000000      -479.192078       0.00000000    
           2

 O   4.03981256       0.00000000       0.00000000      -479.330566    
 C   0.00000000       0.00000000      -479.330566       0.00000000    
           2

 O   4.14379358       0.00000000       0.00000000      -479.469055    
 C   0.00000000       0.00000000      -479.469055       0.00000000    
           2

 O   4.24777460       0.00000000       0.00000000      -479.607544    
 C   0.00000000       0.00000000      -479.607544       0.00000000    
           2

 O   4.35175562       0.00000000       0.00000000      -479.746033    
 C   0.00000000       0.00000000      -479.746033       0.00000000    
           2

 O   4.45573664       0.00000000       0.00000000      -479.884521    
 C   0.00000000       0.00000000      -479.884521       0.00000000    
           2

 O   4.55971766       0.00000000       0.00000000      -480.023010    
 C   0.00000000       0.00000000      -480.023010       0.00000000    
           2

 O   4.66369867       0.00000000       0.00000000      -480.161499    
 C   0.00000000       0.00000000      -480.161499       0.00000000    
           2

 O   4.76767969       0.00000000       0.00000000      -480.299988    
 C   0.00000000       0.00000000      -480.299988       0.00000000    
           2

 O   4.87166071       0.00000000       0.00000000      -480.438477    
 C   0.00000000       0.00000000      -480.438477       0.00000000    
           2

 O   4.97564173       0.00000000       0.00000000      -480.576965    
 C   0.00000000       0.00000000      -480.576965       0.00000000    
           2

 O   5.07962275       0.00000000       0.00000000      -480.715454    
 C   0.00000000       0.00000000      -480.715454       0.00000000    
           2

 O   5.18360376       0.00000000       0.00000000      -480.853943    
 C   0.00000000       0.00000000      -480.853943       0.00000000    
           2

 O   5.28758478       0.00000000       0.00000000      -480.992432    
 C   0.00000000       0.00000000      -480.992432       0.00000000    
           2

 O   5.39156580       0.00000000       0.00000000      -481.130920    
 C   0.00000000       0.00000000      -481.130920       0.00000000    
           2

 O   5.49554682       0.00000000       0.00000000      -481.269409    
 C   0.00000000       0.00000000      -481.269409       0.00000000    
           2

 O   5.59952784       0.00000000       0.00000000      -481.407898    
 C   0.00000000       0.00000000      -481.407898       0.00000000    
           2

 O   5.70350885       0.00000000       0.00000000      -481.546387    
 C   0.00000000       0.00000000      -481.546387       0.00000000    
           2

 O   5.80748987       0.00000000       0.00000000      -481.684875    
 C   0.00000000       0.00000000      -481.684875       0.00000000    
           2

 O   5.91147089       0.00000000       0.00000000      -481.823364    
 C   0.00000000       0.00000000      -481.823364       0.00000000    
           2

 O   6.01545191       0.00000000       0.00000000      -481.961853    
 C   0.00000000       0.00000000      -481.961853       0.00000000    
           2

 O   6.11943293       0.00000000       0.00000000      -482.100342    
 C   0.00000000       0.00000000      -482.100342       0.00000000    
           2

 O   6.22341394       0.00000000       0.00000000      -482.238831    
 C   0.00000000       0.00000000      -482.238831       0.00000000    
           2

 O   6.32739496       0.00000000       0.00000000      -482.377319    
 C   0.00000000       0.00000000      -482.377319       0.00000000    
           2

 O   6.43137598       0.00000000       0.00000000      -482.515808    
 C   0.00000000       0.00000000      -482.515808       0.00000000    
           2

 O   6.53535700       0.00000000       0.00000000      -482.654297    
 C   0.00000000       0.00000000      -482.654297       0.00000000    
           2

 O   6.63933802       0.00000000       0.00000000      -482.792786    
 C   0.00000000       0.00000000      -482.792786       0.00000000    
           2

 O   6.74331903       0.00000000       0.00000000      -482.931274    
 C   0.00000000       0.00000000      -482.931274       0.00000000    
           2

 O   6.84730005       0.00000000       0.00000000      -483.069763    
 C   0.00000000       0.00000000      -483.069763       0.00000000    
           2

 O   6.95128107       0.00000000       0.00000000      -483.208252    
 C   0.00000000       0.00000000      -483.208252       0.00000000    
           2

 O   7.05526209       0.00000000       0.00000000      -483.346741    
 C   0.00000000       0.00000000      -483.346741       0.00000000    
           2

 O   7.15924311       0.00000000       0.00000000      -483.485229    
 C   0.00000000       0.00000000      -483.485229       0.00000000    
           2

 O   7.26322412       0.00000000       0.00000000      -483.623718    
 C   0.00000000       0.00000000      -483.623718       0.00000000    
           2

 O   7.36720514       0.00000000       0.00000000      -483.762207    
 C   0.00000000       0.00000000      -483.762207       0.00000000    
           2

 O   7.47118616       0.00000000       0.00000000      -483.900696    
 C   0.00000000       0.00000000      -483.900696       0.00000000    
           2

 O   7.57516718       0.00000000       0.00000000      -484.039185    
 C   0.00000000       0.00000000      -484.039185       0.00000000    
           2

 O   7.67914820       0.00000000       0.00000000      -484.177673    
 C   0.00000000       0.00000000      -484.177673       0.00000000    
           2

 O   7.78312922       0.00000000       0.00000000      -484.316162    
 C   0.00000000       0.00000000      -484.316162       0.00000000    
           2

 O   7.88711023       0.00000000       0.00000000      -484.454651    
 C   0.00000000       0.00000000      -484.454651       0.00000000    
           2

 O   7.99109125       0.00000000       0.00000000      -484.593140    
 C   0.00000000       0.00000000      -484.593140       0.00000000    
           2

 O   8.09507275       0.00000000       0.00000000      -484.731628    
 C   0.00000000       0.00000000      -484.731628       0.00000000    
           2

 O   8.19905376       0.00000000       0.00000000      -484.870117    
 C   0.00000000       0.00000000      -484.870117       0.00000000    
           2

 O   8.30303478       0.00000000       0.00000000      -485.008606    
 C   0.00000000       0.00000000      -485.008606       0.00000000    
           2

 O   8.40701580       0.00000000       0.00000000      -485.147095    
 C   0.00000000       0.00000000      -485.147095       0.00000000    
           2

 O   8.51099682       0.00000000       0.00000000      -485.285583    
 C   0.00000000       0.00000000      -485.285583       0.00000000    
           2

 O   8.61497784       0.00000000       0.00000000      -485.424072    
 C   0.00000000       0.00000000      -485.424072       0.00000000    
           2

 O   8.71895885       0.00000000       0.00000000      -485.562561    
 C   0.00000000       0.00000000      -485.562561       0.00000000    
           2

 O   8.82293987       0.00000000       0.00000000      -485.701050    
 C   0.00000000       0.00000000      -485.701050       0.00000000    
           2

 O   8.92692089       0.00000000       0.00000000      -485.839539    
 C   0.00000000       0.00000000      -485.839539       0.00000000    
           2

 O   9.03090191       0.00000000       0.00000000      -485.978027    
 C   0.00000000       0.00000000      -485.978027       0.00000000    
           2

 O   9.13488293       0.00000000       0.00000000      -486.116516    
 C   0.00000000       0.00000000      -486.116516       0.00000000    
           2

 O   9.23886395       0.00000000       0.00000000      -486.255005    
 C   0.00000000       0.00000000      -486.255005       0.00000000    
           2

 O   9.34284496       0.00000000       0.00000000      -486.393494    
 C   0.00000000       0.00000000      -486.393494       0.00000000    
           2

 O   9.44682598       0.00000000       0.00000000      -486.531982    
 C   0.00000000       0.00000000      -486.531982       0.00000000    
           2

 O   9.55080700       0.00000000       0.00000000      -486.670471    
 C   0.00000000       0.00000000      -486.670471       0.00000000    
           2

 O   9.65478802       0.00000000       0.00000000      -486.808960    
 C   0.00000000       0.00000000      -486.808960       0.00000000    
           2

 O   9.75876904       0.00000000       0.00000000      -486.947449    
 C   0.00000000       0.00000000      -486.947449       0.00000000    
           2

 O   9.86275005       0.00000000       0.00000000      -487.085938    
 C   0.00000000       0.00000000      -487.085938       0.00000000    
           2

 O   9.96673107       0.00000000       0.00000000      -487.224426    
 C   0.00000000       0.00000000      -487.224426       0.00000000    
           2

 O   10.0707121       0.00000000       0.00000000      -487.362915    
 C   0.00000000       0.00000000      -487.362915       0.00000000    
           2

 O   10.1746931       0.00000000       0.00000000      -487.501404    
 C   0.00000000       0.00000000      -487.501404       0.00000000    
           2

 O   10.2786741       0.00000000       0.00000000      -487.639893    
 C   0.00000000       0.00000000      -487.639893       0.00000000    
           2

 O   10.3826551       0.00000000       0.00000000      -487.778381    
 C   0.00000000       0.00000000      -487.778381       0.00000000    
           2

 O   10.4866362       0.00000000       0.00000000      -487.916870    
 C   0.00000000       0.00000000      -487.916870       0.00000000    
           2

 O   10.5906172       0.00000000       0.00000000      -488.055359    
 C   0.00000000       0.00000000      -488.055359       0.00000000    
           2

 O   10.6945982       0.00000000       0.00000000      -488.193848    
 C   0.00000000       0.00000000      -488.193848       0.00000000    
           2

 O   10.7985792       0.00000000       0.00000000      -488.332336    
 C   0.00000000       0.00000000      -488.332336       0.00000000    
           2

 O   10.9025602       0.00000000       0.00000000      -488.470825    
 C   0.00000000       0.00000000      -488.470825       0.00000000    
           2

 O   11.0065413       0.00000000       0.00000000      -488.609314    
 C   0.00000000       0.00000000      -488.609314       0.00000000    
           2

 O   11.1105223       0.00000000       0.00000000      -488.747803    
 C   0.00000000       0.00000000      -488.747803       0.00000000    
           2

 O   11.2145033       0.00000000       0.00000000      -488.886292    
 C   0.00000000       0.00000000      -488.886292       0.00000000    
           2

 O   11.3184843       0.00000000       0.00000000      -489.024780    
 C   0.00000000       0.00000000      -489.024780       0.00000000    
           2

 O   11.4224653       0.00000000       0.00000000      -489.163269    
 C   0.00000000       0.00000000      -489.163269       0.00000000    
           2

 O   11.5264463       0.00000000       0.00000000      -489.301758    
 C   0.00000000       0.00000000      -489.301758       0.00000000    
           2

 O   11.6304274       0.00000000       0.00000000      -489.440247    
 C   0.00000000       0.00000000      -489.440247       0.00000000    
           2

 O   11.7344084       0.00000000       0.00000000      -489.578735    
 C   0.00000000       0.00000000      -489.578735       0.00000000    
           2

 O   11.8383894       0.00000000       0.00000000      -489.717224    
 C   0.00000000       0.00000000      -489.717224       0.00000000    
           2

 O   11.9423704       0.00000000       0.00000000      -489.855713    
 C   0.00000000       0.00000000      -489.855713       0.00000000    
           2

 O   12.0463514       0.00000000       0.00000000      -489.994202    
 C   0.00000000       0.00000000      -489.994202       0.00000000    
           2

 O   12.1503325       0.00000000       0.00000000      -490.132690    
 C   0.00000000       0.00000000      -490.132690       0.00000000    
           2

 O   12.2543135       0.00000000       0.00000000      -490.271179    
 C   0.00000000       0.00000000      -490.271179       0.00000000    
           2

 O   12.3582945       0.00000000       0.00000000      -490.409668    
 C   0.00000000       0.00000000      -490.409668       0.00000000    
           2

 O   12.4622755       0.00000000       0.00000000      -490.548157    
 C   0.00000000       0.00000000      -490.548157       0.00000000    
           2

 O   12.5662565       0.00000000       0.00000000      -490.686646    
 C   0.00000000       0.00000000      -490.686646       0.00000000    
           2

 O   12.6702375       0.00000000       0.00000000      -490.825134    
 C   0.00000000       0.00000000      -490.825134       0.00000000    
           2

 O   12.7742186       0.00000000       0.00000000      -490.963623    
 C   0.00000000       0.00000000      -490.963623       0.00000000    
           2

 O   12.8781996       0.00000000       0.00000000      -491.102112    
 C   0.00000000       0.00000000      -491.102112       0.00000000    
           2

 O   12.9821806       0.00000000       0.00000000      -491.240601    
 C   0.00000000       0.00000000      -491.240601       0.00000000    
           2

 O   13.0861616       0.00000000       0.00000000      -491.379089    
 C   0.00000000       0.00000000      -491.379089       0.00000000    
           2

 O   13.1901426       0.00000000       0.00000000      -491.517578    
 C   0.00000000       0.00000000      -491.517578       0.00000000    
           2

 O   13.2941236       0.00000000       0.00000000      -491.656067    
 C   0.00000000       0.00000000      -491.656067       0.00000000    
           2

 O   13.3981047       0.00000000       0.00000000      -491.794556    
 C   0.00000000       0.00000000      -491.794556       0.00000000    
           2

 O   13.5020857       0.00000000       0.00000000      -491.933044    
 C   0.00000000       0.00000000      -491.933044       0.00000000    
           2

 O   13.6060667       0.00000000       0.00000000      -492.071533    
 C   0.00000000       0.00000000      -492.071533       0.00000000    
           2

 O   13.7100477       0.00000000       0.00000000      -492.210022    
 C   0.00000000       0.00000000      -492.210022       0.00000000    
           2

 O   13.8140287       0.00000000       0.00000000      -492.348511    
 C   0.00000000       0.00000000      -492.348511       0.00000000    
           2

 O   13.9180098       0.00000000       0.00000000      -492.487000    
 C   0.00000000       0.00000000      -492.487000       0.00000000    
           2

 O   14.0219908       0.00000000       0.00000000      -492.625488    
 C   0.00000000       0.00000000      -492.625488       0.00000000    
           2

 O   14.1259718       0.00000000       0.00000000      -492.763977    
 C   0.00000000       0.00000000      -492.763977       0.00000000    
           2

 O   14.2299528       0.00000000       0.00000000      -492.902466    
 C   0.00000000       0.00000000      -492.902466       0.00000000    
           2

 O   14.3339338       0.00000000       0.00000000      -493.040955    
 C   0.00000000       0.00000000      -493.040955       0.00000000    
           2

 O   14.4379148       0.00000000       0.00000000      -493.179443    
 C   0.00000000       0.00000000      -493.179443       0.00000000    
           2

 O   14.5418959       0.00000000       0.00000000      -493.317932    
 C   0.00000000       0.00000000      -493.317932       0.00000000    
           2

 O   14.6458769       0.00000000       0.00000000      -493.456421    
 C   0.00000000       0.00000000      -493.456421       0.00000000    
           2

 O   14.7498579       0.00000000       0.00000000      -493.594910    
 C   0.00000000       0.00000000      -493.594910       0.00000000    
           2

 O   14.8538389       0.00000000       0.00000000      -493.733398    
 C   0.00000000       0.00000000      -493.733398       0.00000000    
           2

 O   14.9578199       0.00000000       0.00000000      -493.871887    
 C   0.00000000       0.00000000      -493.871887       0.00000000    
           2

 O   15.0618010       0.00000000       0.00000000      -494.010376    
 C   0.00000000       0.00000000      -494.010376       0.00000000    
           2

 O   15.1657820       0.00000000       0.00000000      -494.148865    
 C   0.00000000       0.00000000      -494.148865       0.00000000    
           2

 O   15.2697630       0.00000000       0.00000000      -494.287354    
 C   0.00000000       0.00000000      -494.287354       0.00000000    
           2

 O   15.3737440       0.00000000       0.00000000      -494.425842    
 C   0.00000000       0.00000000      -494.425842       0.00000000    
           2

 O   15.4777250       0.00000000       0.00000000      -494.564331    
 C   0.00000000       0.00000000      -494.564331       0.00000000    
           2

 O   15.5817060       0.00000000       0.00000000      -494.702820    
 C   0.00000000       0.00000000      -494.702820       0.00000000    
           2

 O   15.6856871       0.00000000       0.00000000      -494.841309    
 C   0.00000000       0.00000000      -494.841309       0.00000000    
           2

 O   15.7896681       0.00000000       0.00000000      -494.979797    
 C   0.00000000       0.00000000      -494.979797       0.00000000    
           2

 O   15.8936491       0.00000000       0.00000000      -495.118286    
 C   0.00000000       0.00000000      -495.118286       0.00000000    
           2

 O   15.9976301       0.00000000       0.00000000      -495.256775    
 C   0.00000000       0.00000000      -495.256775       0.00000000    
           2

 O   16.1016121       0.00000000       0.00000000      -495.395264    
 C   0.00000000       0.00000000      -495.395264       0.00000000    
           2

 O   16.2055931       0.00000000       0.00000000      -495.533752    
 C   0.00000000       0.00000000      -495.533752       0.00000000    
           2

 O   16.3095741       0.00000000       0.00000000      -495.672241    
 C   0.00000000       0.00000000      -495.672241       0.00000000    
           2

 O   16.4135551       0.00000000       0.00000000      -495.810730    
 C   0.00000000       0.00000000      -495.810730       0.00000000    
           2

 O   16.5175362       0.00000000       0.00000000      -495.949219    
 C   0.00000000       0.00000000      -495.949219       0.00000000    
           2

 O   16.6215172       0.00000000       0.00000000      -496.087708    
 C   0.00000000       0.00000000      -496.087708       0.00000000    
           2

 O   16.7254982       0.00000000       0.00000000      -496.226196    
 C   0.00000000       0.00000000      -496.226196       0.00000000    
           2

 O   16.8294792       0.00000000       0.00000000      -496.364685    
 C   0.00000000       0.00000000      -496.364685       0.00000000    
           2

 O   16.9334602       0.00000000       0.00000000      -496.503174    
 C   0.00000000       0.00000000      -496.503174       0.00000000    
           2

 O   17.0374413       0.00000000       0.00000000      -496.641663    
 C   0.00000000       0.00000000      -496.641663       0.00000000    
           2

 O   17.1414223       0.00000000       0.00000000      -496.780151    
 C   0.00000000       0.00000000      -496.780151       0.00000000    
           2

 O   17.2454033       0.00000000       0.00000000      -496.918640    
 C   0.00000000       0.00000000      -496.918640       0.00000000    
           2

 O   17.3493843       0.00000000       0.00000000      -497.057129    
 C   0.00000000       0.00000000      -497.057129       0.00000000    
           2

 O   17.4533653       0.00000000       0.00000000      -497.195618    
 C   0.00000000       0.00000000      -497.195618       0.00000000    
           2

 O   17.5573463       0.00000000       0.00000000      -497.334106    
 C   0.00000000       0.00000000      -497.334106       0.00000000    
           2

 O   17.6613274       0.00000000       0.00000000      -497.472595    
 C   0.00000000       0.00000000      -497.472595       0.00000000    
           2

 O   17.7653084       0.00000000       0.00000000      -497.611084    
 C   0.00000000       0.00000000      -497.611084       0.00000000    
           2

 O   17.8692894       0.00000000       0.00000000      -497.749573    
 C   0.00000000       0.00000000      -497.749573       0.00000000    
           2

 O   17.9732704       0.00000000       0.00000000      -497.888062    
 C   0.00000000       0.00000000      -497.888062       0.00000000    
           2

 O   18.0772514       0.00000000       0.00000000      -498.026550    
 C   0.00000000       0.00000000      -498.026550       0.00000000    
           2

 O   18.1812325       0.00000000       0.00000000      -498.165039    
 C   0.00000000       0.00000000      -498.165039       0.00000000    
           2

 O   18.2852135       0.00000000       0.00000000      -498.303528    
 C   0.00000000       0.00000000      -498.303528       0.00000000    
           2

 O   18.3891945       0.00000000       0.00000000      -498.442017    
 C   0.00000000       0.00000000      -498.442017       0.00000000    
           2

 O   18.4931755       0.00000000       0.00000000      -498.580505    
 C   0.00000000       0.00000000      -498.580505       0.00000000    
           2

 O   18.5971565       0.00000000       0.00000000      -498.718994    
 C   0.00000000       0.00000000      -498.718994       0.00000000    
           2

 O   18.7011375       0.00000000       0.00000000      -498.857483    
 C   0.00000000       0.00000000      -498.857483       0.00000000    
           2

 O   18.8051186       0.00000000       0.00000000      -498.995972    
 C   0.00000000       0.00000000      -498.995972       0.00000000    
           2

 O   18.9090996       0.00000000       0.00000000      -499.134460    
 C   0.00000000       0.00000000      -499.134460       0.00000000    
           2

 O   19.0130806       0.00000000       0.00000000      -499.272949    
 C   0.00000000       0.00000000      -499.272949       0.00000000    
           2

 O   19.1170616       0.00000000       0.00000000      -499.411438    
 C   0.00000000       0.00000000      -499.411438       0.00000000    
           2

 O   19.2210426       0.00000000       0.00000000      -499.549927    
 C   0.00000000       0.00000000      -499.549927       0.00000000    
           2

 O   19.3250237       0.00000000       0.00000000      -499.688416    
 C   0.00000000       0.00000000      -499.688416       0.00000000    
           2

 O   19.4290047       0.00000000       0.00000000      -499.826904    
 C   0.00000000       0.00000000      -499.826904       0.00000000    
           2

 O   19.5329857       0.00000000       0.00000000      -499.965393    
 C   0.00000000       0.00000000      -499.965393       0.00000000    
           2

 O   19.6369667       0.00000000       0.00000000      -500.103882    
 C   0.00000000       0.00000000      -500.103882       0.00000000    
           2

 O   19.7409477       0.00000000       0.00000000      -500.242371    
 C   0.00000000       0.00000000      -500.242371       0.00000000    
           2

 O   19.8449287       0.00000000       0.00000000      -500.380859    
 C   0.00000000       0.00000000      -500.380859       0.00000000    
           2

 O   19.9489098       0.00000000       0.00000000      -500.519348    
 C   0.00000000       0.00000000      -500.519348       0.00000000    
           2

 O   20.0528908       0.00000000       0.00000000      -500.657837    
 C   0.00000000       0.00000000      -500.657837       0.00000000    
           2

 O   20.1568718       0.00000000       0.00000000      -500.796326    
 C   0.00000000       0.00000000      -500.796326       0.00000000    
           2

 O   20.2608528       0.00000000       0.00000000      -500.934814    
 C   0.00000000       0.00000000      -500.934814       0.00000000    
           2

 O   20.3648338       0.00000000       0.00000000      -501.073303    
 C   0.00000000       0.00000000      -501.073303       0.00000000    
           2

 O   20.4688148       0.00000000       0.00000000      -501.211792    
 C   0.00000000       0.00000000      -501.211792       0.00000000    
           2

 O   20.5727959       0.00000000       0.00000000      -501.350281    
 C   0.00000000       0.00000000      -501.350281       0.00000000    
           2

 O   20.6767769       0.00000000       0.00000000      -501.488770    
 C   0.00000000       0.00000000      -501.488770       0.00000000    
           2

 O   20.7807579       0.00000000       0.00000000      -501.627258    
 C   0.00000000       0.00000000      -501.627258       0.00000000    
           2

 O   20.8847389       0.00000000       0.00000000      -501.765747    
 C   0.00000000       0.00000000      -501.765747       0.00000000    
           2

 O   20.9887199       0.00000000       0.00000000      -501.904236    
 C   0.00000000       0.00000000      -501.904236       0.00000000    
           2

 O   21.0927010       0.00000000       0.00000000      -502.042725    
 C   0.00000000       0.00000000      -502.042725       0.00000000    
           2

 O   21.1966820       0.00000000       0.00000000      -502.181213    
 C   0.00000000       0.00000000      -502.181213       0.00000000    
           2

 O   21.3006630       0.00000000       0.00000000      -502.319702    
 C   0.00000000       0.00000000      -502.319702       0.00000000    
           2

 O   21.4046440       0.00000000       0.00000000      -502.458191    
 C   0.00000000       0.00000000      -502.458191       0.00000000    
           2

 O   21.5086250       0.00000000       0.00000000      -502.596680    
 C   0.00000000       0.00000000      -502.596680       0.00000000    
           2

 O   21.6126060       0.00000000       0.00000000      -502.735168    
 C   0.00000000       0.00000000      -502.735168       0.00000000    
           2

 O   21.7165871       0.00000000       0.00000000      -502.873657    
 C   0.00000000       0.00000000      -502.873657       0.00000000    
           2

 O   21.8205681       0.00000000       0.00000000      -503.012146    
 C   0.00000000       0.00000000      -503.012146       0.00000000    
           2

 O   21.9245491       0.00000000       0.00000000      -503.150635    
 C   0.00000000       0.00000000      -503.150635       0.00000000    
           2

 O   22.0285301       0.00000000       0.00000000      -503.289124    
 C   0.00000000       0.00000000      -503.289124       0.00000000    
           2

 O   22.1325111       0.00000000       0.00000000      -503.427612    
 C   0.00000000       0.00000000      -503.427612       0.00000000    
           2

 O   22.2364922       0.00000000       0.00000000      -503.566101    
 C   0.00000000       0.00000000      -503.566101       0.00000000    
           2

 O   22.3404732       0.00000000       0.00000000      -503.704590    
 C   0.00000000       0.00000000      -503.704590       0.00000000    
           2

 O   22.4444542       0.00000000       0.00000000      -503.843079    
 C   0.00000000       0.00000000      -503.843079       0.00000000    
           2

 O   22.5484352       0.00000000       0.00000000      -503.981567    
 C   0.00000000       0.00000000      -503.981567       0.00000000    
           2

 O   22.6524162       0.00000000       0.00000000      -504.120056    
 C   0.00000000       0.00000000      -504.120056       0.00000000    
           2

 O   22.7563972       0.00000000       0.00000000      -504.258545    
 C   0.00000000       0.00000000      -504.258545       0.00000000    
           2

 O   22.8603783       0.00000000       0.00000000      -504.397034    
 C   0.00000000       0.00000000      -504.397034       0.00000000    
           2

 O   22.9643593       0.00000000       0.00000000      -504.535522    
 C   0.00000000       0.00000000      -504.535522       0.00000000    
           2

 O   23.0683403       0.00000000       0.00000000      -504.674011    
 C   0.00000000       0.00000000      -504.674011       0.00000000    
           2

 O   23.1723213       0.00000000       0.00000000      -504.812500    
 C   0.00000000       0.00000000      -504.812500       0.00000000    
           2

 O   23.2763023       0.00000000       0.00000000      -504.950989    
 C   0.00000000       0.00000000      -504.950989       0.00000000    
           2

 O   23.3802834       0.00000000       0.00000000      -505.089478    
 C   0.00000000       0.00000000      -505.089478       0.00000000    
           2

 O   23.4842644       0.00000000       0.00000000      -505.227966    
 C   0.00000000       0.00000000      -505.227966       0.00000000    
           2

 O   23.5882454       0.00000000       0.00000000      -505.366455    
 C   0.00000000       0.00000000      -505.366455       0.00000000    
           2

 O   23.6922264       0.00000000       0.00000000      -505.504944    
 C   0.00000000       0.00000000      -505.504944       0.00000000    
           2

 O   23.7962074       0.00000000       0.00000000      -505.643433    
 C   0.00000000       0.00000000      -505.643433       0.00000000    
           2

 O   23.9001884       0.00000000       0.00000000      -505.781921    
 C   0.00000000       0.00000000      -505.781921       0.00000000    
           2

 O   24.0041695       0.00000000       0.00000000      -505.920410    
 C   0.00000000       0.00000000      -505.920410       0.00000000    
           2

 O   24.1081505       0.00000000       0.00000000      -506.058899    
 C   0.00000000       0.00000000      -506.058899       0.00000000    
           2

 O   24.2121315       0.00000000       0.00000000      -506.197388    
 C   0.00000000       0.00000000      -506.197388       0.00000000    
           2

 O   24.3161125       0.00000000       0.00000000      -506.335876    
 C   0.00000000       0.00000000      -506.335876       0.00000000    
           2

 O   24.4200935       0.00000000       0.00000000      -506.474365    
 C   0.00000000       0.00000000      -506.474365       0.00000000    
           2

 O   24.5240746       0.00000000       0.00000000      -506.612854    
 C   0.00000000       0.00000000      -506.612854       0.00000000    
           2

 O   24.6280556       0.00000000       0.00000000      -506.751343    
 C   0.00000000       0.00000000      -506.751343       0.00000000    
           2

 O   24.7320366       0.00000000       0.00000000      -506.889832    
 C   0.00000000       0.00000000      -506.889832       0.00000000    
           2

 O   24.8360176       0.00000000       0.00000000      -507.028320    
 C   0.00000000       0.00000000      -507.028320       0.00000000    
           2

 O   24.9399986       0.00000000       0.00000000      -507.166809    
 C   0.00000000       0.00000000      -507.166809       0.00000000    
           2

 O   25.0439796       0.00000000       0.00000000      -507.305298    
 C   0.00000000       0.00000000      -507.305298       0.00000000    
           2

 O   25.1479607       0.00000000       0.00000000      -507.443787    
 C   0.00000000       0.00000000      -507.443787       0.00000000    
           2

 O   25.2519417       0.00000000       0.00000000      -507.582275    
 C   0.00000000       0.00000000      -507.582275       0.00000000    
           2

 O   25.3559227       0.00000000       0.00000000      -507.720764    
 C   0.00000000       0.00000000      -507.720764       0.00000000    
           2

 O   25.4599037       0.00000000       0.00000000      -507.859253    
 C   0.00000000       0.00000000      -507.859253       0.00000000    
           2

 O   25.5638847       0.00000000       0.00000000      -507.997742    
 C   0.00000000       0.00000000      -507.997742       0.00000000    
           2

 O   25.6678658       0.00000000       0.00000000      -508.136230    
 C   0.00000000       0.00000000      -508.136230       0.00000000    
           2

 O   25.7718468       0.00000000       0.00000000      -508.274719    
 C   0.00000000       0.00000000      -508.274719       0.00000000    
           2

 O   25.8758278       0.00000000       0.00000000      -508.413208    
 C   0.00000000       0.00000000      -508.413208       0.00000000    
           2

 O   25.9798088       0.00000000       0.00000000      -508.551697    
 C   0.00000000       0.00000000      -508.551697       0.00000000    
           2

 O   26.0837898       0.00000000       0.00000000      -508.690186    
 C   0.00000000       0.00000000      -508.690186       0.00000000    
           2

 O   26.1877708       0.00000000       0.00000000      -508.828674    
 C   0.00000000       0.00000000      -508.828674       0.00000000    
           2

 O   26.2917519       0.00000000       0.00000000      -508.967163    
 C   0.00000000       0.00000000      -508.967163       0.00000000    
           2

 O   26.3957329       0.00000000       0.00000000      -509.105652    
 C   0.00000000       0.00000000      -509.105652       0.00000000    
           2

 O   26.4997139       0.00000000       0.00000000      -509.244141    
 C   0.00000000       0.00000000      -509.244141       0.00000000    
           2

 O   26.6036949       0.00000000       0.00000000      -509.382629    
 C   0.00000000       0.00000000      -509.382629       0.00000000    
           2

 O   26.7076759       0.00000000       0.00000000      -509.521118    
 C   0.00000000       0.00000000      -509.521118       0.00000000    
           2

 O   26.8116570       0.00000000       0.00000000      -509.659607    
 C   0.00000000       0.00000000      -509.659607       0.00000000    
           2

 O   26.9156380       0.00000000       0.00000000      -509.798096    
 C   0.00000000       0.00000000      -509.798096       0.00000000    
           2

 O   27.0196190       0.00000000       0.00000000      -509.936584    
 C   0.00000000       0.00000000      -509.936584       0.00000000    
           2

 O   27.1236000       0.00000000       0.00000000      -510.075073    
 C   0.00000000       0.00000000      -510.075073       0.00000000    
           2

 O   27.2275810       0.00000000       0.00000000      -510.213562    
 C   0.00000000       0.00000000      -510.213562       0.00000000    
           2

 O   27.3315620       0.00000000       0.00000000      -510.352051    
 C   0.00000000       0.00000000      -510.352051       0.00000000    
           2

 O   27.4355431       0.00000000       0.00000000      -510.490540    
 C   0.00000000       0.00000000      -510.490540       0.00000000    
           2

 O   27.5395241       0.00000000       0.00000000      -510.629028    
 C   0.00000000       0.00000000      -510.629028       0.00000000    
           2

 O   27.6435051       0.00000000       0.00000000      -510.767517    
 C   0.00000000       0.00000000      -510.767517       0.00000000    
           2

 O   27.7474861       0.00000000       0.00000000      -510.906006    
 C   0.00000000       0.00000000      -510.906006       0.00000000    
           2

 O   27.8514671       0.00000000       0.00000000      -511.044495    
 C   0.00000000       0.00000000      -511.044495       0.00000000    
           2

 O   27.9554482       0.00000000       0.00000000      -511.182983    
 C   0.00000000       0.00000000      -511.182983       0.00000000    
           2

 O   28.0594292       0.00000000       0.00000000      -511.321472    
 C   0.00000000       0.00000000      -511.321472       0.00000000    
           2

 O   28.1634102       0.00000000       0.00000000      -511.459961    
 C   0.00000000       0.00000000      -511.459961       0.00000000    
           2

 O   28.2673912       0.00000000       0.00000000      -511.598450    
 C   0.00000000       0.00000000      -511.598450       0.00000000    
           2

 O   28.3713722       0.00000000       0.00000000      -511.736938    
 C   0.00000000       0.00000000      -511.736938       0.00000000    
           2

 O   28.4753532       0.00000000       0.00000000      -511.875427    
 C   0.00000000       0.00000000      -511.875427       0.00000000    
           2

 O   28.5793343       0.00000000       0.00000000      -512.013916    
 C   0.00000000       0.00000000      -512.013916       0.00000000    
           2

 O   28.6833153       0.00000000       0.00000000      -512.152405    
 C   0.00000000       0.00000000      -512.152405       0.00000000    
           2

 O   28.7872963       0.00000000       0.00000000      -512.290894    
 C   0.00000000       0.00000000      -512.290894       0.00000000    
           2

 O   28.8912773       0.00000000       0.00000000      -512.429382    
 C   0.00000000       0.00000000      -512.429382       0.00000000    
           2

 O   28.9952583       0.00000000       0.00000000      -512.567871    
 C   0.00000000       0.00000000      -512.567871       0.00000000    
