 13
 99999
 Au -0.2419276  0.51873846  0.137832465
 Au -0.040949237  0.0583780775  2.70885288
 Au  0.281051545 -1.99618185  0.787407042
 Au -2.22838861 -0.920176418  1.11892199
 Au -1.94079525  1.87798316  1.64110681
 Au  0.971841668  2.38461676  1.5402954
 Au  2.19388778 -0.0863954888  1.03529261
 Au -1.38923774 -1.3473458 -1.39924225
 Au -2.68927546  1.01658734 -0.960481583
 Au -0.788500078  2.9926497 -0.649859911
 Au  1.72209143  1.8499178 -1.11328373
 Au  1.35151512 -0.818935006 -1.56760772
 Au -0.484653387  1.07801181 -2.51600515

